{\rtf1\ansi\ansicpg1252\cocoartf2818
\cocoatextscaling0\cocoaplatform0{\fonttbl\f0\fswiss\fcharset0 Helvetica;}
{\colortbl;\red255\green255\blue255;}
{\*\expandedcolortbl;;}
\paperw11900\paperh16840\margl1440\margr1440\vieww13320\viewh8400\viewkind0
\pard\tx566\tx1133\tx1700\tx2267\tx2834\tx3401\tx3968\tx4535\tx5102\tx5669\tx6236\tx6803\pardirnatural\partightenfactor0

\f0\fs24 \cf0    Input file: /Users/enrico/Desktop/Part III Project/Code/Nepal-1/Code/phreeqc_input.pqi\
  Output file: /Users/enrico/Desktop/Part III Project/Code/Nepal-1/Code/outputFile4\
Database file: /Applications/MacPHREEQC.app/Contents/Resources/database/phreeqc.dat\
\
------------------\
Reading data base.\
------------------\
\
	SOLUTION_MASTER_SPECIES\
	SOLUTION_SPECIES\
	PHASES\
	EXCHANGE_MASTER_SPECIES\
	EXCHANGE_SPECIES\
	SURFACE_MASTER_SPECIES\
	SURFACE_SPECIES\
	MEAN_GAMMAS\
	RATES\
	END\
------------------------------------\
Reading input data for simulation 1.\
------------------------------------\
\
	TITLE NEP22-10 -- Geochemical Solution\
	SOLUTION 70 NEP22-10\
	    units ppm\
	    pH 6.48\
	    temp 12.8\
	    Ca 1.28806\
	    Mg 0.2275\
	    Na 1.82043\
	    K 0.33366\
	    Fe 0.00207573704015558\
	    Mn 0.00153\
	    Si 5.72065\
	    Alkalinity 142.29 as CaCO3\
	    S(6) 0.01913\
	TITLE NEP22-11 -- Geochemical Solution\
	SOLUTION 71 NEP22-11\
	    units ppm\
	    pH 6.59\
	    temp 13.3\
	    Ca 1.51341\
	    Mg 0.25994\
	    Na 2.07327\
	    K 0.40248\
	    Fe 0.00289299969973289\
	    Mn 0.00046\
	    Si 6.30806\
	    Alkalinity 173.81 as CaCO3\
	    S(6) 0.04954\
	TITLE NEP22-12 -- Geochemical Solution\
	SOLUTION 72 NEP22-12\
	    units ppm\
	    pH 6.77\
	    temp 13.4\
	    Ca 1.04729\
	    Mg 0.15207\
	    Na 1.20067\
	    K 0.29977\
	    Fe 0.0012951786448244\
	    Mn 0.00013\
	    Si 5.02449\
	    Alkalinity 173.4 as CaCO3\
	    S(6) 0.07242\
	TITLE NEP22-13 -- Geochemical Solution\
	SOLUTION 73 NEP22-13\
	    units ppm\
	    pH 6.76\
	    temp 15.0\
	    Ca 1.5767\
	    Mg 0.26504\
	    Na 1.68057\
	    K 0.38599\
	    Fe 0.00211428159034109\
	    Mn 0.00022\
	    Si 5.2939\
	    Alkalinity 157.34 as CaCO3\
	    S(6) 0.1528\
	TITLE NEP22-15 -- Geochemical Solution\
	SOLUTION 75 NEP22-15\
	    units ppm\
	    pH 7.29\
	    temp 14.6\
	    Ca 3.27677\
	    Mg 0.39015\
	    Na 2.51746\
	    K 0.45937\
	    Fe 0.00277420402916498\
	    Mn 0.00022\
	    Si 6.78954\
	    Alkalinity 250.48 as CaCO3\
	    S(6) 0.25737\
	TITLE NEP22-16 -- Geochemical Solution\
	SOLUTION 76 NEP22-16\
	    units ppm\
	    pH 7.14\
	    temp 11.7\
	    Ca 1.37548\
	    Mg 0.2295\
	    Na 1.03096\
	    K 0.31253\
	    Fe 0.0019076076683123499\
	    Mn 3e-05\
	    Si 5.07371\
	    Alkalinity 170.85 as CaCO3\
	    S(6) 0.11358\
	TITLE NEP22-19 -- Geochemical Solution\
	SOLUTION 79 NEP22-19\
	    units ppm\
	    pH 6.07\
	    temp 15.1\
	    Ca 1.59643\
	    Mg 0.2547\
	    Na 1.60034\
	    K 0.40059\
	    Fe 0.00161899510385592\
	    Mn 0.00104\
	    Si 5.33169\
	    Alkalinity 183.6 as CaCO3\
	    S(6) 0.14061\
	TITLE NEP22-20 -- Geochemical Solution\
	SOLUTION 81 NEP22-20\
	    units ppm\
	    pH 7.14\
	    temp 11.4\
	    Ca 1.10332\
	    Mg 0.18693\
	    Na 1.19823\
	    K 0.29987\
	    Fe 0.0029765152283134\
	    Mn 0.00055\
	    Si 4.5581\
	    Alkalinity 210.4 as CaCO3\
	    S(6) 0.14612\
	TITLE NEP22-42 -- Geochemical Solution\
	SOLUTION 101 NEP22-42\
	    units ppm\
	    pH 6.24\
	    temp 21.9\
	    Ca 2.75517\
	    Mg 0.35685\
	    Na 3.33846\
	    K 0.73466\
	    Fe 0.00264421447920189\
	    Mn 0.00013\
	    Si 8.05905\
	    Alkalinity 268.87 as CaCO3\
	    S(6) 0.18571\
	TITLE NEP22-45 -- Geochemical Solution\
	SOLUTION 103 NEP22-45\
	    units ppm\
	    pH 7.57\
	    temp 21.6\
	    Ca 3.21859\
	    Mg 0.42603\
	    Na 4.54859\
	    K 0.63925\
	    Fe 0.0029707221735366697\
	    Mn 0.00016\
	    Si 9.31031\
	    Alkalinity 354.28 as CaCO3\
	    S(6) 0.13991\
	TITLE NEP22-53 -- Geochemical Solution\
	SOLUTION 112 NEP22-53\
	    units ppm\
	    pH 6.33\
	    temp 16.7\
	    Ca 3.14942\
	    Mg 0.52595\
	    Na 3.32537\
	    K 0.84715\
	    Fe 0.00329276780612551\
	    Mn 0.00077\
	    Si 7.99342\
	    Alkalinity 258.06 as CaCO3\
	    S(6) 0.09561\
	TITLE NEP22-54 -- Geochemical Solution\
	SOLUTION 113 NEP22-54\
	    units ppm\
	    pH 6.19\
	    temp 17.0\
	    Ca 2.92386\
	    Mg 0.4871\
	    Na 3.17092\
	    K 0.7611\
	    Fe 0.00285353637964085\
	    Mn 7e-05\
	    Si 7.72055\
	    Alkalinity 239.99 as CaCO3\
	    S(6) 0.08256\
	TITLE NEP22-55 -- Geochemical Solution\
	SOLUTION 114 NEP22-55\
	    units ppm\
	    pH 6.69\
	    temp 17.1\
	    Ca 2.88305\
	    Mg 0.47789\
	    Na 3.06539\
	    K 0.76044\
	    Fe 0.00268223311222332\
	    Mn 0.00016\
	    Si 7.6455\
	    Alkalinity 268.311 as CaCO3\
	    S(6) 0.06982\
	TITLE NEP22-56 -- Geochemical Solution\
	SOLUTION 115 NEP22-56\
	    units ppm\
	    pH 6.86\
	    temp 19.1\
	    Ca 4.24774\
	    Mg 0.37798\
	    Na 4.75624\
	    K 0.87563\
	    Fe 0.00434287808053633\
	    Mn 0.00024\
	    Si 10.92715\
	    Alkalinity 387.09 as CaCO3\
	    S(6) 0.11309\
	TITLE NEP22-57 -- Geochemical Solution\
	SOLUTION 116 NEP22-57\
	    units ppm\
	    pH 6.85\
	    temp 19.3\
	    Ca 6.279\
	    Mg 0.84919\
	    Na 6.38947\
	    K 1.40672\
	    Fe 0.00506086331311566\
	    Mn 0.00029\
	    Si 12.98301\
	    Alkalinity 532.75 as CaCO3\
	    S(6) 0.42366\
	TITLE NEP22-58 -- Geochemical Solution\
	SOLUTION 117 NEP22-58\
	    units ppm\
	    pH 7.34\
	    temp 16.8\
	    Ca 3.21539\
	    Mg 0.31175\
	    Na 4.16388\
	    K 0.69786\
	    Fe 0.00339374466104222\
	    Mn 0.00022\
	    Si 10.1457\
	    Alkalinity 350.77 as CaCO3\
	    S(6) 0.09154\
	TITLE NEP22-59 -- Geochemical Solution\
	SOLUTION 118 NEP22-59\
	    units ppm\
	    pH 7.48\
	    temp 20.3\
	    Ca 2.50621\
	    Mg 0.34816\
	    Na 3.09361\
	    K 0.74341\
	    Fe 0.00196879939609519\
	    Mn 0.0002\
	    Si 7.62627\
	    Alkalinity 250.41 as CaCO3\
	    S(6) 0.12357\
	TITLE NEP22-60 -- Geochemical Solution\
	SOLUTION 120 NEP22-60\
	    units ppm\
	    pH 7.04\
	    temp 21.3\
	    Ca 3.9896\
	    Mg 0.64416\
	    Na 3.91315\
	    K 1.08304\
	    Fe 0.00425432702478449\
	    Mn 0.00039\
	    Si 8.06893\
	    Alkalinity 239.99 as CaCO3\
	    S(6) 0.29162\
	TITLE NEP22-9 -- Geochemical Solution\
	SOLUTION 151 NEP22-9\
	    units ppm\
	    pH 6.32\
	    temp 12.8\
	    Ca 0.5869\
	    Mg 0.11546\
	    Na 0.40614\
	    K 0.22848\
	    Fe 0.00061354310442368\
	    Mn 0.00194\
	    Si 2.84147\
	    Alkalinity 309.4 as CaCO3\
	    S(6) 0.06822\
	TITLE Nep23-113 -- Geochemical Solution\
	SOLUTION 174 Nep23-113\
	    units ppm\
	    pH 7.24\
	    temp 20.8\
	    Ca 2.65632\
	    Mg 0.3597\
	    Na 2.93704\
	    K 0.86468\
	    Fe 0.0022390648281323798\
	    Mn 0.00035\
	    Si 7.00702\
	    Alkalinity 262.4420228866632 as CaCO3\
	    S(6) 0.08755\
	TITLE Nep23-114 -- Geochemical Solution\
	SOLUTION 175 Nep23-114\
	    units ppm\
	    pH 6.31\
	    temp 21.8\
	    Ca 2.74152\
	    Mg 0.35262\
	    Na 3.3129\
	    K 0.77156\
	    Fe 0.0030566291175714\
	    Mn 0.00217\
	    Si 7.76619\
	    Alkalinity 234.66926007545723 as CaCO3\
	    S(6) 0.08537\
	TITLE Nep23-115 -- Geochemical Solution\
	SOLUTION 176 Nep23-115\
	    units ppm\
	    pH 7.2\
	    temp 22.3\
	    Ca 2.71472\
	    Mg 0.36384\
	    Na 3.03721\
	    K 0.91338\
	    Fe 0.00139233713591917\
	    Mn 0.0003\
	    Si 7.24647\
	    Alkalinity 245.71045199601176 as CaCO3\
	    S(6) 0.06827\
	TITLE Nep23-116 -- Geochemical Solution\
	SOLUTION 177 Nep23-116\
	    units ppm\
	    pH 7.45\
	    temp 24.0\
	    Ca 6.25894\
	    Mg 0.76467\
	    Na 4.16629\
	    K 2.24786\
	    Fe 0.00451857068860511\
	    Mn 0.00154\
	    Si 7.15672\
	    Alkalinity 353.53964868689434 as CaCO3\
	    S(6) 0.44161\
	TITLE Nep23-117 -- Geochemical Solution\
	SOLUTION 178 Nep23-117\
	    units ppm\
	    pH 7.26\
	    temp 23.8\
	    Ca 3.15758\
	    Mg 0.44703\
	    Na 4.42248\
	    K 0.73834\
	    Fe 0.00184426895265983\
	    Mn 9e-05\
	    Si 9.21913\
	    Alkalinity 310.4541322091138 as CaCO3\
	    S(6) 0.09064\
	TITLE Nep23-118 -- Geochemical Solution\
	SOLUTION 179 Nep23-118\
	    units ppm\
	    pH 6.72\
	    temp 21.0\
	    Ca 4.33345\
	    Mg 0.37147\
	    Na 4.47039\
	    K 0.99074\
	    Fe 0.0024316217427458498\
	    Mn 0.00015\
	    Si 10.78037\
	    Alkalinity 351.11750182885305 as CaCO3\
	    S(6) 0.02323\
	TITLE Nep23-119 -- Geochemical Solution\
	SOLUTION 180 Nep23-119\
	    units ppm\
	    pH 6.32\
	    temp 19.1\
	    Ca 3.88112\
	    Mg 0.33191\
	    Na 4.03925\
	    K 0.89306\
	    Fe 0.0025737246789411202\
	    Mn 0.00015\
	    Si 9.64935\
	    Alkalinity 261.4178738452527 as CaCO3\
	    S(6) -0.00102\
	TITLE Nep23-120 -- Geochemical Solution\
	SOLUTION 182 Nep23-120\
	    units ppm\
	    pH 6.65\
	    temp 16.3\
	    Ca 1.46658\
	    Mg 0.23994\
	    Na 1.72364\
	    K 0.40121\
	    Fe 0.0011215520123002102\
	    Mn 0.00017\
	    Si 5.43042\
	    Alkalinity 119.40486626977888 as CaCO3\
	    S(6) 0.03927\
	TITLE Nep23-121 -- Geochemical Solution\
	SOLUTION 183 Nep23-121\
	    units ppm\
	    pH 6.01\
	    temp 15.0\
	    Ca 1.46933\
	    Mg 0.2519\
	    Na 1.82611\
	    K 0.41416\
	    Fe 0.0011417891810916\
	    Mn 0.00092\
	    Si 5.55301\
	    Alkalinity 136.34212213914284 as CaCO3\
	    S(6) -0.00169\
	TITLE Nep23-122 -- Geochemical Solution\
	SOLUTION 184 Nep23-122\
	    units ppm\
	    pH 6.0\
	    temp 14.6\
	    Ca 0.57089\
	    Mg 0.11622\
	    Na 0.49997\
	    K 0.26008\
	    Fe 0.0018204677731309999\
	    Mn 0.00165\
	    Si 2.93287\
	    Alkalinity 93.05246938873613 as CaCO3\
	    S(6) 0.06052\
	TITLE NEP23-15 -- Geochemical Solution\
	SOLUTION 204 NEP23-15\
	    units ppm\
	    pH 7.15\
	    temp 20.4\
	    Ca 1.52853\
	    Mg 0.21962\
	    Na 2.88376\
	    K 0.596\
	    Fe 0.00199\
	    Mn -0.00016\
	    Si 7.7523\
	    Alkalinity 186.0 as CaCO3\
	    S(6) 0.11685\
	TITLE NEP23-16 -- Geochemical Solution\
	SOLUTION 205 NEP23-16\
	    units ppm\
	    pH 6.35\
	    temp 19.7\
	    Ca 2.60082\
	    Mg 0.3831\
	    Na 3.80301\
	    K 1.84706\
	    Fe 0.00369\
	    Mn 0.00761\
	    Si 7.99097\
	    Alkalinity 193.0 as CaCO3\
	    S(6) 0.14502\
	TITLE NEP23-17 -- Geochemical Solution\
	SOLUTION 206 NEP23-17\
	    units ppm\
	    pH 7.51\
	    temp 20.9\
	    Ca 3.13595\
	    Mg 0.46281\
	    Na 4.81737\
	    K 0.82121\
	    Fe 0.00375\
	    Mn -3e-05\
	    Si 10.47364\
	    Alkalinity 302.0 as CaCO3\
	    S(6) 0.14283\
	TITLE NEP23-18 -- Geochemical Solution\
	SOLUTION 207 NEP23-18\
	    units ppm\
	    pH 6.07\
	    temp 21.3\
	    Ca 2.99145\
	    Mg 0.37713\
	    Na 4.50998\
	    K 0.75902\
	    Fe 0.00323\
	    Mn 0.0001\
	    Si 10.11602\
	    Alkalinity 275.0 as CaCO3\
	    S(6) 0.12472\
	TITLE NEP23-20 -- Geochemical Solution\
	SOLUTION 209 NEP23-20\
	    units ppm\
	    pH 7.02\
	    temp 15.8\
	    Ca 1.46427\
	    Mg 0.24321\
	    Na 1.56089\
	    K 0.70195\
	    Fe 0.0014199999999999998\
	    Mn -0.00013\
	    Si 5.28524\
	    Alkalinity 185.0 as CaCO3\
	    S(6) 0.0992\
	TITLE NEP23-22 -- Geochemical Solution\
	SOLUTION 211 NEP23-22\
	    units ppm\
	    pH 6.97\
	    temp 13.8\
	    Ca 1.44201\
	    Mg 0.22312\
	    Na 2.37331\
	    K 0.21286\
	    Fe 0.0028399999999999996\
	    Mn 0.00074\
	    Si 6.93201\
	    Alkalinity 160.0 as CaCO3\
	    S(6) 0.016\
	TITLE NEP23-23 -- Geochemical Solution\
	SOLUTION 212 NEP23-23\
	    units ppm\
	    pH 5.95\
	    temp 13.2\
	    Ca 0.59694\
	    Mg 0.12522\
	    Na 0.53342\
	    K 0.31733\
	    Fe 0.00934\
	    Mn 0.01347\
	    Si 2.94176\
	    Alkalinity 93.0 as CaCO3\
	    S(6) 0.09948\
	TITLE NEP23-24 -- Geochemical Solution\
	SOLUTION 213 NEP23-24\
	    units ppm\
	    pH 5.76\
	    temp 15.5\
	    Ca 1.22548\
	    Mg 0.19883\
	    Na 1.69183\
	    K 0.34599\
	    Fe 0.00102\
	    Mn 0.00028\
	    Si 5.86078\
	    Alkalinity 114.0 as CaCO3\
	    S(6) 0.08029\
	TITLE NEP23-25 -- Geochemical Solution\
	SOLUTION 214 NEP23-25\
	    units ppm\
	    pH 6.97\
	    temp 17.9\
	    Ca 3.10642\
	    Mg 0.49738\
	    Na 3.51692\
	    K 0.96335\
	    Fe 0.00352\
	    Mn 0.0\
	    Si 8.62946\
	    Alkalinity 262.0 as CaCO3\
	    S(6) 0.06156\
	TITLE NEP23-26 -- Geochemical Solution\
	SOLUTION 215 NEP23-26\
	    units ppm\
	    pH 7.04\
	    temp 22.5\
	    Ca 3.58595\
	    Mg 0.31045\
	    Na 4.54574\
	    K 1.03947\
	    Fe 0.00445\
	    Mn 0.00043\
	    Si 11.44005\
	    Alkalinity 330.0 as CaCO3\
	    S(6) 0.08791\
	EQUILIBRIUM_PHASES 1\
	    Calcite 0.0 0.0   # Saturation index for calcite\
	    Gypsum 0.0 0.0    # Saturation index for gypsum\
	    Quartz 0.0 0.0    # Saturation index for quartz\
	    Halite 0.0 0.0    # Saturation index for halite\
	    Dolomite 0.0 0.0  # Saturation index for dolomite\
	    Anhydrite 0.0 0.0 # Saturation index for anhydrite\
	    Pyrite 0.0 0.0    # Saturation index for pyrite\
	    Hematite 0.0 0.0  # Saturation index for hematite\
	    Siderite 0.0 0.0  # Saturation index for siderite\
	    Kaolinite 0.0 0.0 # Saturation index for kaolinite\
	    Gibbsite 0.0 0.0  # Saturation index for gibbsite\
	    Goethite 0.0 0.0  # Saturation index for goethite\
	    Anorthite 0.0 0.0 # Saturation index for anorthite\
	    Albite 0.0 0.0    # Saturation index for albite\
	    Illite 0.0 0.0    # Saturation index for illite\
	SELECTED_OUTPUT\
	    file results.txt\
	    saturation_indices\
-----\
TITLE\
-----\
\
 NEP23-26 -- Geochemical Solution\
\
-------------------------------------------\
Beginning of initial solution calculations.\
-------------------------------------------\
\
Initial solution 70.	NEP22-10\
\
WARNING: Equivalent wt for alkalinity should be Ca.5(CO3).5. Using 50.0455 g/eq.\
-----------------------------Solution composition------------------------------\
\
	Elements           Molality       Moles\
\
	Alkalinity        2.844e-03   2.844e-03\
	Ca                3.214e-05   3.214e-05\
	Fe                3.717e-08   3.717e-08\
	K                 8.534e-06   8.534e-06\
	Mg                9.359e-06   9.359e-06\
	Mn                2.785e-08   2.785e-08\
	Na                7.920e-05   7.920e-05\
	S(6)              1.992e-07   1.992e-07\
	Si                9.522e-05   9.522e-05\
\
----------------------------Description of solution----------------------------\
\
                                       pH  =   6.480    \
                                       pe  =   4.000    \
      Specific Conductance (\'b5S/cm,  13\'b0C)  = 94\
                          Density (g/cm\'b3)  =   0.99954\
                               Volume (L)  =   1.00075\
                        Viscosity (mPa s)  =   1.20876\
                        Activity of water  =   1.000\
                 Ionic strength (mol/kgw)  =   1.549e-03\
                       Mass of water (kg)  =   1.000e+00\
                    Total carbon (mol/kg)  =   5.314e-03\
                       Total CO2 (mol/kg)  =   5.314e-03\
                         Temperature (\'b0C)  =  12.80\
                  Electrical balance (eq)  =  -2.673e-03\
 Percent error, 100*(Cat-|An|)/(Cat+|An|)  = -88.68\
                               Iterations  =   9\
                                  Total H  = 1.110157e+02\
                                  Total O  = 5.552007e+01\
\
----------------------------Distribution of species----------------------------\
\
                                               Log       Log       Log    mole V\
   Species          Molality    Activity  Molality  Activity     Gamma   cm\'b3/mol\
\
   H+              3.449e-07   3.311e-07    -6.462    -6.480    -0.018      0.00\
   OH-             1.186e-08   1.135e-08    -7.926    -7.945    -0.019     -4.78\
   H2O             5.551e+01   9.999e-01     1.744    -0.000     0.000     18.03\
C(4)          5.314e-03\
   HCO3-           2.843e-03   2.725e-03    -2.546    -2.565    -0.018     23.28\
   CO2             2.470e-03   2.470e-03    -2.607    -2.607     0.000     33.81\
   CO3-2           3.429e-07   2.895e-07    -6.465    -6.538    -0.074     -5.63\
   MgHCO3+         2.466e-07   2.362e-07    -6.608    -6.627    -0.019      5.05\
   CaHCO3+         1.684e-07   1.615e-07    -6.774    -6.792    -0.018    122.07\
   NaHCO3          1.252e-07   1.253e-07    -6.902    -6.902     0.000     31.83\
   (CO2)2          7.268e-08   7.271e-08    -7.139    -7.138     0.000     67.63\
   CaCO3           1.090e-08   1.091e-08    -7.962    -7.962     0.000    -14.64\
   KHCO3           8.083e-09   8.083e-09    -8.092    -8.092     0.000     40.94\
   FeHCO3+         7.152e-09   6.851e-09    -8.146    -8.164    -0.019     (0)  \
   MnHCO3+         4.835e-09   4.634e-09    -8.316    -8.334    -0.018     (0)  \
   MgCO3           1.762e-09   1.763e-09    -8.754    -8.754     0.000    -17.08\
   MnCO3           4.386e-10   4.387e-10    -9.358    -9.358     0.000     (0)  \
   FeCO3           1.745e-10   1.746e-10    -9.758    -9.758     0.000     (0)  \
Ca            3.214e-05\
   Ca+2            3.196e-05   2.697e-05    -4.495    -4.569    -0.074    -18.33\
   CaHCO3+         1.684e-07   1.615e-07    -6.774    -6.792    -0.018    122.07\
   CaCO3           1.090e-08   1.091e-08    -7.962    -7.962     0.000    -14.64\
   CaSO4           7.277e-10   7.279e-10    -9.138    -9.138     0.000      6.95\
   CaOH+           1.411e-11   1.352e-11   -10.850   -10.869    -0.019     (0)  \
   CaHSO4+         1.414e-15   1.354e-15   -14.850   -14.868    -0.019     (0)  \
Fe(2)         3.709e-08\
   Fe+2            2.975e-08   2.514e-08    -7.527    -7.600    -0.073    -23.03\
   FeHCO3+         7.152e-09   6.851e-09    -8.146    -8.164    -0.019     (0)  \
   FeCO3           1.745e-10   1.746e-10    -9.758    -9.758     0.000     (0)  \
   FeOH+           9.684e-12   9.281e-12   -11.014   -11.032    -0.018     (0)  \
   FeSO4           5.914e-13   5.916e-13   -12.228   -12.228     0.000     34.41\
   Fe(OH)2         7.886e-17   7.889e-17   -16.103   -16.103     0.000     (0)  \
   FeHSO4+         1.318e-18   1.263e-18   -17.880   -17.899    -0.019     (0)  \
   Fe(OH)3-        8.151e-21   7.812e-21   -20.089   -20.107    -0.018     (0)  \
Fe(3)         8.636e-11\
   Fe(OH)2+        7.100e-11   6.805e-11   -10.149   -10.167    -0.018     (0)  \
   Fe(OH)3         1.520e-11   1.521e-11   -10.818   -10.818     0.000     (0)  \
   FeOH+2          1.307e-13   1.103e-13   -12.884   -12.958    -0.074     (0)  \
   Fe(OH)4-        2.620e-14   2.512e-14   -13.582   -13.600    -0.018     (0)  \
   Fe+3            1.724e-17   1.196e-17   -16.764   -16.922    -0.159     (0)  \
   FeSO4+          1.724e-20   1.652e-20   -19.763   -19.782    -0.018     (0)  \
   Fe2(OH)2+4      1.102e-24   5.535e-25   -23.958   -24.257    -0.299     (0)  \
   Fe(SO4)2-       5.994e-26   5.742e-26   -25.222   -25.241    -0.019     (0)  \
   FeHSO4+2        1.792e-26   1.508e-26   -25.747   -25.821    -0.075     (0)  \
   Fe3(OH)4+5      7.469e-32   2.545e-32   -31.127   -31.594    -0.467     (0)  \
H(0)          1.762e-24\
   H2              8.808e-25   8.811e-25   -24.055   -24.055     0.000     28.62\
K             8.534e-06\
   K+              8.526e-06   8.165e-06    -5.069    -5.088    -0.019      8.54\
   KHCO3           8.083e-09   8.083e-09    -8.092    -8.092     0.000     40.94\
   KSO4-           2.091e-11   2.005e-11   -10.680   -10.698    -0.018     12.80\
Mg            9.359e-06\
   Mg+2            9.110e-06   7.697e-06    -5.040    -5.114    -0.073    -21.33\
   MgHCO3+         2.466e-07   2.362e-07    -6.608    -6.627    -0.019      5.05\
   MgCO3           1.762e-09   1.763e-09    -8.754    -8.754     0.000    -17.08\
   MgSO4           2.452e-10   2.454e-10    -9.610    -9.610     0.000    -12.99\
   MgOH+           2.790e-11   2.676e-11   -10.554   -10.573    -0.018     (0)  \
   Mg(SO4)2-2      2.019e-16   1.710e-16   -15.695   -15.767    -0.072     -4.99\
Mn(2)         2.785e-08\
   Mn+2            2.258e-08   1.908e-08    -7.646    -7.719    -0.073    -21.18\
   MnHCO3+         4.835e-09   4.634e-09    -8.316    -8.334    -0.018     (0)  \
   MnCO3           4.386e-10   4.387e-10    -9.358    -9.358     0.000     (0)  \
   MnOH+           5.480e-13   5.251e-13   -12.261   -12.280    -0.018     (0)  \
   MnSO4           4.443e-13   4.445e-13   -12.352   -12.352     0.000     29.06\
   Mn(OH)3-        8.689e-24   8.327e-24   -23.061   -23.079    -0.018     (0)  \
Mn(3)         1.326e-30\
   Mn+3            1.326e-30   9.200e-31   -29.877   -30.036    -0.159     (0)  \
Na            7.920e-05\
   Na+             7.907e-05   7.576e-05    -4.102    -4.121    -0.019     -2.25\
   NaHCO3          1.252e-07   1.253e-07    -6.902    -6.902     0.000     31.83\
   NaSO4-          1.900e-10   1.821e-10    -9.721    -9.740    -0.018    -22.88\
   NaOH            8.598e-23   8.601e-23   -22.066   -22.065     0.000     (0)  \
O(0)          0.000e+00\
   O2              0.000e+00   0.000e+00   -48.375   -48.375     0.000     29.27\
S(6)          1.992e-07\
   SO4-2           1.980e-07   1.670e-07    -6.703    -6.777    -0.074     13.80\
   CaSO4           7.277e-10   7.279e-10    -9.138    -9.138     0.000      6.95\
   MgSO4           2.452e-10   2.454e-10    -9.610    -9.610     0.000    -12.99\
   NaSO4-          1.900e-10   1.821e-10    -9.721    -9.740    -0.018    -22.88\
   KSO4-           2.091e-11   2.005e-11   -10.680   -10.698    -0.018     12.80\
   HSO4-           4.361e-12   4.177e-12   -11.360   -11.379    -0.019     39.23\
   FeSO4           5.914e-13   5.916e-13   -12.228   -12.228     0.000     34.41\
   MnSO4           4.443e-13   4.445e-13   -12.352   -12.352     0.000     29.06\
   CaHSO4+         1.414e-15   1.354e-15   -14.850   -14.868    -0.019     (0)  \
   Mg(SO4)2-2      2.019e-16   1.710e-16   -15.695   -15.767    -0.072     -4.99\
   FeHSO4+         1.318e-18   1.263e-18   -17.880   -17.899    -0.019     (0)  \
   FeSO4+          1.724e-20   1.652e-20   -19.763   -19.782    -0.018     (0)  \
   Fe(SO4)2-       5.994e-26   5.742e-26   -25.222   -25.241    -0.019     (0)  \
   FeHSO4+2        1.792e-26   1.508e-26   -25.747   -25.821    -0.075     (0)  \
Si            9.522e-05\
   H4SiO4          9.520e-05   9.523e-05    -4.021    -4.021     0.000     53.31\
   H3SiO4-         2.794e-08   2.676e-08    -7.554    -7.572    -0.019     27.55\
   H2SiO4-2        2.771e-15   2.339e-15   -14.557   -14.631    -0.074     (0)  \
\
------------------------------Saturation indices-------------------------------\
\
  Phase               SI** log IAP   log K(285 K,   1 atm)\
\
  Anhydrite        -7.20    -11.35   -4.15  CaSO4\
  Aragonite        -2.84    -11.11   -8.27  CaCO3\
  Arcanite        -14.89    -16.95   -2.06  K2SO4\
  Calcite          -2.69    -11.11   -8.41  CaCO3\
  Chalcedony       -0.32     -4.02   -3.70  SiO2\
  Chrysotile      -18.28     15.50   33.78  Mg3Si2O5(OH)4\
  CO2(g)           -1.30     -2.61   -1.31  CO2\
  Dolomite         -5.85    -22.76  -16.91  CaMg(CO3)2\
  Epsomite        -10.08    -11.89   -1.81  MgSO4:7H2O\
  Fe(OH)3(a)       -2.37      2.52    4.89  Fe(OH)3\
  Goethite          3.06      2.52   -0.55  FeOOH\
  Gypsum           -6.75    -11.35   -4.59  CaSO4:2H2O\
  H2(g)           -20.99    -24.05   -3.07  H2\
  H2O(g)           -1.83     -0.00    1.83  H2O\
  Hausmannite     -27.50     36.68   64.18  Mn3O4\
  Hematite          8.08      5.04   -3.04  Fe2O3\
  Hexahydrite     -10.31    -11.89   -1.58  MgSO4:6H2O\
  Jarosite-K      -22.30    -30.53   -8.23  KFe3(SO4)2(OH)6\
  Kieserite       -10.62    -11.89   -1.27  MgSO4:H2O\
  Manganite        -9.62     15.72   25.34  MnOOH\
  Melanterite     -12.01    -14.38   -2.37  FeSO4:7H2O\
  Mirabilite      -13.20    -15.02   -1.82  Na2SO4:10H2O\
  O2(g)           -45.58    -48.38   -2.79  O2\
  Pyrochroite      -9.96      5.24   15.20  Mn(OH)2\
  Pyrolusite      -17.22     26.20   43.42  MnO2:H2O\
  Quartz            0.15     -4.02   -4.17  SiO2\
  Rhodochrosite    -3.17    -14.26  -11.09  MnCO3\
  Sepiolite       -12.47      3.63   16.09  Mg2Si3O7.5OH:3H2O\
  Sepiolite(d)    -15.03      3.63   18.66  Mg2Si3O7.5OH:3H2O\
  Siderite         -3.33    -14.14  -10.81  FeCO3\
  SiO2(a)          -1.20     -4.02   -2.82  SiO2\
  Talc            -15.39      7.45   22.85  Mg3Si4O10(OH)2\
  Thenardite      -14.78    -15.02   -0.24  Na2SO4\
\
**For a gas, SI = log10(fugacity). Fugacity = pressure * phi / 1 atm.\
  For ideal gases, phi = 1.\
\
Initial solution 71.	NEP22-11\
\
WARNING: Equivalent wt for alkalinity should be Ca.5(CO3).5. Using 50.0455 g/eq.\
-----------------------------Solution composition------------------------------\
\
	Elements           Molality       Moles\
\
	Alkalinity        3.474e-03   3.474e-03\
	Ca                3.777e-05   3.777e-05\
	Fe                5.181e-08   5.181e-08\
	K                 1.029e-05   1.029e-05\
	Mg                1.069e-05   1.069e-05\
	Mn                8.375e-09   8.375e-09\
	Na                9.020e-05   9.020e-05\
	S(6)              5.158e-07   5.158e-07\
	Si                1.050e-04   1.050e-04\
\
----------------------------Description of solution----------------------------\
\
                                       pH  =   6.590    \
                                       pe  =   4.000    \
      Specific Conductance (\'b5S/cm,  13\'b0C)  = 116\
                          Density (g/cm\'b3)  =   0.99950\
                               Volume (L)  =   1.00083\
                        Viscosity (mPa s)  =   1.19267\
                        Activity of water  =   1.000\
                 Ionic strength (mol/kgw)  =   1.885e-03\
                       Mass of water (kg)  =   1.000e+00\
                    Total carbon (mol/kg)  =   5.782e-03\
                       Total CO2 (mol/kg)  =   5.782e-03\
                         Temperature (\'b0C)  =  13.30\
                  Electrical balance (eq)  =  -3.277e-03\
 Percent error, 100*(Cat-|An|)/(Cat+|An|)  = -89.27\
                               Iterations  =   9 (18 overall)\
                                  Total H  = 1.110163e+02\
                                  Total O  = 5.552168e+01\
\
----------------------------Distribution of species----------------------------\
\
                                               Log       Log       Log    mole V\
   Species          Molality    Activity  Molality  Activity     Gamma   cm\'b3/mol\
\
   H+              2.687e-07   2.570e-07    -6.571    -6.590    -0.019      0.00\
   OH-             1.601e-08   1.527e-08    -7.796    -7.816    -0.021     -4.74\
   H2O             5.551e+01   9.999e-01     1.744    -0.000     0.000     18.03\
C(4)          5.782e-03\
   HCO3-           3.472e-03   3.314e-03    -2.459    -2.480    -0.020     23.36\
   CO2             2.309e-03   2.309e-03    -2.637    -2.637     0.000     33.84\
   CO3-2           5.536e-07   4.597e-07    -6.257    -6.337    -0.081     -5.52\
   MgHCO3+         3.372e-07   3.216e-07    -6.472    -6.493    -0.021      5.07\
   CaHCO3+         2.431e-07   2.322e-07    -6.614    -6.634    -0.020    122.11\
   NaHCO3          1.753e-07   1.754e-07    -6.756    -6.756     0.000     31.83\
   (CO2)2          6.472e-08   6.475e-08    -7.189    -7.189     0.000     67.68\
   CaCO3           2.009e-08   2.010e-08    -7.697    -7.697     0.000    -14.64\
   KHCO3           1.191e-08   1.191e-08    -7.924    -7.924     0.000     40.94\
   FeHCO3+         1.148e-08   1.095e-08    -7.940    -7.961    -0.021     (0)  \
   MgCO3           3.153e-09   3.155e-09    -8.501    -8.501     0.000    -17.08\
   MnHCO3+         1.674e-09   1.597e-09    -8.776    -8.797    -0.020     (0)  \
   FeCO3           3.642e-10   3.644e-10    -9.439    -9.438     0.000     (0)  \
   MnCO3           1.974e-10   1.975e-10    -9.705    -9.704     0.000     (0)  \
Ca            3.777e-05\
   Ca+2            3.750e-05   3.113e-05    -4.426    -4.507    -0.081    -18.31\
   CaHCO3+         2.431e-07   2.322e-07    -6.614    -6.634    -0.020    122.11\
   CaCO3           2.009e-08   2.010e-08    -7.697    -7.697     0.000    -14.64\
   CaSO4           2.146e-09   2.147e-09    -8.668    -8.668     0.000      6.98\
   CaOH+           2.107e-11   2.010e-11   -10.676   -10.697    -0.021     (0)  \
   CaHSO4+         3.270e-15   3.119e-15   -14.485   -14.506    -0.021     (0)  \
Fe(2)         5.160e-08\
   Fe+2            3.973e-08   3.304e-08    -7.401    -7.481    -0.080    -22.97\
   FeHCO3+         1.148e-08   1.095e-08    -7.940    -7.961    -0.021     (0)  \
   FeCO3           3.642e-10   3.644e-10    -9.439    -9.438     0.000     (0)  \
   FeOH+           1.714e-11   1.636e-11   -10.766   -10.786    -0.020     (0)  \
   FeSO4           1.997e-12   1.998e-12   -11.700   -11.699     0.000     33.65\
   Fe(OH)2         1.877e-16   1.878e-16   -15.726   -15.726     0.000     (0)  \
   FeHSO4+         3.470e-18   3.310e-18   -17.460   -17.480    -0.021     (0)  \
   Fe(OH)3-        2.524e-20   2.409e-20   -19.598   -19.618    -0.020     (0)  \
Fe(3)         2.166e-10\
   Fe(OH)2+        1.688e-10   1.611e-10    -9.773    -9.793    -0.020     (0)  \
   Fe(OH)3         4.747e-11   4.749e-11   -10.324   -10.323     0.000     (0)  \
   FeOH+2          2.393e-13   1.985e-13   -12.621   -12.702    -0.081     (0)  \
   Fe(OH)4-        1.082e-13   1.033e-13   -12.966   -12.986    -0.020     (0)  \
   Fe+3            2.413e-17   1.619e-17   -16.617   -16.791    -0.173     (0)  \
   FeSO4+          6.037e-20   5.761e-20   -19.219   -19.239    -0.020     (0)  \
   Fe2(OH)2+4      3.739e-24   1.755e-24   -23.427   -23.756    -0.329     (0)  \
   Fe(SO4)2-       5.354e-25   5.107e-25   -24.271   -24.292    -0.021     (0)  \
   FeHSO4+2        4.923e-26   4.074e-26   -25.308   -25.390    -0.082     (0)  \
   Fe3(OH)4+5      5.927e-31   1.817e-31   -30.227   -30.741    -0.513     (0)  \
H(0)          1.056e-24\
   H2              5.278e-25   5.280e-25   -24.278   -24.277     0.000     28.62\
K             1.029e-05\
   K+              1.028e-05   9.805e-06    -4.988    -5.009    -0.021      8.57\
   KHCO3           1.191e-08   1.191e-08    -7.924    -7.924     0.000     40.94\
   KSO4-           6.420e-11   6.134e-11   -10.192   -10.212    -0.020     12.87\
Mg            1.069e-05\
   Mg+2            1.035e-05   8.607e-06    -4.985    -5.065    -0.080    -21.34\
   MgHCO3+         3.372e-07   3.216e-07    -6.472    -6.493    -0.021      5.07\
   MgCO3           3.153e-09   3.155e-09    -8.501    -8.501     0.000    -17.08\
   MgSO4           7.069e-10   7.075e-10    -9.151    -9.150     0.000    -12.74\
   MgOH+           4.237e-11   4.048e-11   -10.373   -10.393    -0.020     (0)  \
   Mg(SO4)2-2      1.490e-15   1.242e-15   -14.827   -14.906    -0.079     -3.95\
Mn(2)         8.375e-09\
   Mn+2            6.503e-09   5.408e-09    -8.187    -8.267    -0.080    -21.07\
   MnHCO3+         1.674e-09   1.597e-09    -8.776    -8.797    -0.020     (0)  \
   MnCO3           1.974e-10   1.975e-10    -9.705    -9.704     0.000     (0)  \
   MnSO4           3.238e-13   3.239e-13   -12.490   -12.490     0.000     28.74\
   MnOH+           2.100e-13   2.004e-13   -12.678   -12.698    -0.020     (0)  \
   Mn(OH)3-        5.287e-24   5.045e-24   -23.277   -23.297    -0.020     (0)  \
Mn(3)         4.207e-31\
   Mn+3            4.207e-31   2.822e-31   -30.376   -30.549    -0.173     (0)  \
Na            9.020e-05\
   Na+             9.002e-05   8.590e-05    -4.046    -4.066    -0.020     -2.20\
   NaHCO3          1.753e-07   1.754e-07    -6.756    -6.756     0.000     31.83\
   NaSO4-          5.538e-10   5.287e-10    -9.257    -9.277    -0.020    -22.30\
   NaOH            1.311e-22   1.311e-22   -21.882   -21.882     0.000     (0)  \
O(0)          0.000e+00\
   O2              0.000e+00   0.000e+00   -47.756   -47.756     0.000     29.33\
S(6)          5.158e-07\
   SO4-2           5.123e-07   4.249e-07    -6.290    -6.372    -0.081     14.05\
   CaSO4           2.146e-09   2.147e-09    -8.668    -8.668     0.000      6.98\
   MgSO4           7.069e-10   7.075e-10    -9.151    -9.150     0.000    -12.74\
   NaSO4-          5.538e-10   5.287e-10    -9.257    -9.277    -0.020    -22.30\
   KSO4-           6.420e-11   6.134e-11   -10.192   -10.212    -0.020     12.87\
   HSO4-           8.736e-12   8.333e-12   -11.059   -11.079    -0.021     39.29\
   FeSO4           1.997e-12   1.998e-12   -11.700   -11.699     0.000     33.65\
   MnSO4           3.238e-13   3.239e-13   -12.490   -12.490     0.000     28.74\
   CaHSO4+         3.270e-15   3.119e-15   -14.485   -14.506    -0.021     (0)  \
   Mg(SO4)2-2      1.490e-15   1.242e-15   -14.827   -14.906    -0.079     -3.95\
   FeHSO4+         3.470e-18   3.310e-18   -17.460   -17.480    -0.021     (0)  \
   FeSO4+          6.037e-20   5.761e-20   -19.219   -19.239    -0.020     (0)  \
   Fe(SO4)2-       5.354e-25   5.107e-25   -24.271   -24.292    -0.021     (0)  \
   FeHSO4+2        4.923e-26   4.074e-26   -25.308   -25.390    -0.082     (0)  \
Si            1.050e-04\
   H4SiO4          1.050e-04   1.050e-04    -3.979    -3.979     0.000     53.25\
   H3SiO4-         4.068e-08   3.880e-08    -7.391    -7.411    -0.021     27.57\
   H2SiO4-2        5.462e-15   4.536e-15   -14.263   -14.343    -0.081     (0)  \
\
------------------------------Saturation indices-------------------------------\
\
  Phase               SI** log IAP   log K(286 K,   1 atm)\
\
  Anhydrite        -6.72    -10.88   -4.15  CaSO4\
  Aragonite        -2.57    -10.84   -8.27  CaCO3\
  Arcanite        -14.34    -16.39   -2.05  K2SO4\
  Calcite          -2.43    -10.84   -8.41  CaCO3\
  Chalcedony       -0.29     -3.98   -3.69  SiO2\
  Chrysotile      -17.32     16.39   33.71  Mg3Si2O5(OH)4\
  CO2(g)           -1.32     -2.64   -1.32  CO2\
  Dolomite         -5.33    -22.25  -16.92  CaMg(CO3)2\
  Epsomite         -9.63    -11.44   -1.81  MgSO4:7H2O\
  Fe(OH)3(a)       -1.91      2.98    4.89  Fe(OH)3\
  Goethite          3.55      2.98   -0.57  FeOOH\
  Gypsum           -6.29    -10.88   -4.59  CaSO4:2H2O\
  H2(g)           -21.21    -24.28   -3.07  H2\
  H2O(g)           -1.82     -0.00    1.82  H2O\
  Hausmannite     -28.12     35.92   64.04  Mn3O4\
  Hematite          9.04      5.96   -3.08  Fe2O3\
  Hexahydrite      -9.85    -11.44   -1.58  MgSO4:6H2O\
  Jarosite-K      -20.31    -28.58   -8.27  KFe3(SO4)2(OH)6\
  Kieserite       -10.17    -11.44   -1.27  MgSO4:H2O\
  Manganite        -9.84     15.50   25.34  MnOOH\
  Melanterite     -11.49    -13.85   -2.36  FeSO4:7H2O\
  Mirabilite      -12.71    -14.50   -1.79  Na2SO4:10H2O\
  O2(g)           -44.96    -47.76   -2.80  O2\
  Pyrochroite     -10.29      4.91   15.20  Mn(OH)2\
  Pyrolusite      -17.24     26.09   43.33  MnO2:H2O\
  Quartz            0.18     -3.98   -4.16  SiO2\
  Rhodochrosite    -3.52    -14.60  -11.09  MnCO3\
  Sepiolite       -11.79      4.29   16.08  Mg2Si3O7.5OH:3H2O\
  Sepiolite(d)    -14.37      4.29   18.66  Mg2Si3O7.5OH:3H2O\
  Siderite         -3.00    -13.82  -10.82  FeCO3\
  SiO2(a)          -1.17     -3.98   -2.81  SiO2\
  Talc            -14.36      8.43   22.79  Mg3Si4O10(OH)2\
  Thenardite      -14.26    -14.50   -0.24  Na2SO4\
\
**For a gas, SI = log10(fugacity). Fugacity = pressure * phi / 1 atm.\
  For ideal gases, phi = 1.\
\
Initial solution 72.	NEP22-12\
\
WARNING: Equivalent wt for alkalinity should be Ca.5(CO3).5. Using 50.0455 g/eq.\
-----------------------------Solution composition------------------------------\
\
	Elements           Molality       Moles\
\
	Alkalinity        3.465e-03   3.465e-03\
	Ca                2.613e-05   2.613e-05\
	Fe                2.320e-08   2.320e-08\
	K                 7.668e-06   7.668e-06\
	Mg                6.256e-06   6.256e-06\
	Mn                2.367e-09   2.367e-09\
	Na                5.224e-05   5.224e-05\
	S(6)              7.540e-07   7.540e-07\
	Si                8.364e-05   8.364e-05\
\
----------------------------Description of solution----------------------------\
\
                                       pH  =   6.770    \
                                       pe  =   4.000    \
      Specific Conductance (\'b5S/cm,  13\'b0C)  = 113\
                          Density (g/cm\'b3)  =   0.99948\
                               Volume (L)  =   1.00081\
                        Viscosity (mPa s)  =   1.18943\
                        Activity of water  =   1.000\
                 Ionic strength (mol/kgw)  =   1.829e-03\
                       Mass of water (kg)  =   1.000e+00\
                    Total carbon (mol/kg)  =   4.984e-03\
                       Total CO2 (mol/kg)  =   4.984e-03\
                         Temperature (\'b0C)  =  13.40\
                  Electrical balance (eq)  =  -3.342e-03\
 Percent error, 100*(Cat-|An|)/(Cat+|An|)  = -93.07\
                               Iterations  =  10 (28 overall)\
                                  Total H  = 1.110162e+02\
                                  Total O  = 5.551999e+01\
\
----------------------------Distribution of species----------------------------\
\
                                               Log       Log       Log    mole V\
   Species          Molality    Activity  Molality  Activity     Gamma   cm\'b3/mol\
\
   H+              1.774e-07   1.698e-07    -6.751    -6.770    -0.019      0.00\
   OH-             2.443e-08   2.331e-08    -7.612    -7.632    -0.020     -4.73\
   H2O             5.551e+01   9.999e-01     1.744    -0.000     0.000     18.03\
C(4)          4.984e-03\
   HCO3-           3.463e-03   3.308e-03    -2.461    -2.480    -0.020     23.37\
   CO2             1.519e-03   1.520e-03    -2.818    -2.818     0.000     33.85\
   CO3-2           8.366e-07   6.964e-07    -6.078    -6.157    -0.080     -5.51\
   MgHCO3+         1.972e-07   1.883e-07    -6.705    -6.725    -0.020      5.08\
   CaHCO3+         1.690e-07   1.615e-07    -6.772    -6.792    -0.020    122.11\
   NaHCO3          1.017e-07   1.018e-07    -6.993    -6.992     0.000     31.83\
   (CO2)2          2.814e-08   2.815e-08    -7.551    -7.550     0.000     67.69\
   CaCO3           2.112e-08   2.113e-08    -7.675    -7.675     0.000    -14.64\
   KHCO3           8.877e-09   8.877e-09    -8.052    -8.052     0.000     40.94\
   FeHCO3+         5.086e-09   4.855e-09    -8.294    -8.314    -0.020     (0)  \
   MgCO3           2.805e-09   2.807e-09    -8.552    -8.552     0.000    -17.08\
   MnHCO3+         4.673e-10   4.463e-10    -9.330    -9.350    -0.020     (0)  \
   FeCO3           2.451e-10   2.452e-10    -9.611    -9.611     0.000     (0)  \
   MnCO3           8.370e-11   8.373e-11   -10.077   -10.077     0.000     (0)  \
Ca            2.613e-05\
   Ca+2            2.594e-05   2.159e-05    -4.586    -4.666    -0.080    -18.31\
   CaHCO3+         1.690e-07   1.615e-07    -6.772    -6.792    -0.020    122.11\
   CaCO3           2.112e-08   2.113e-08    -7.675    -7.675     0.000    -14.64\
   CaSO4           2.188e-09   2.189e-09    -8.660    -8.660     0.000      6.98\
   CaOH+           2.211e-11   2.110e-11   -10.655   -10.676    -0.020     (0)  \
   CaHSO4+         2.204e-15   2.104e-15   -14.657   -14.677    -0.020     (0)  \
Fe(2)         2.295e-08\
   Fe+2            1.760e-08   1.467e-08    -7.754    -7.833    -0.079    -22.96\
   FeHCO3+         5.086e-09   4.855e-09    -8.294    -8.314    -0.020     (0)  \
   FeCO3           2.451e-10   2.452e-10    -9.611    -9.611     0.000     (0)  \
   FeOH+           1.161e-11   1.109e-11   -10.935   -10.955    -0.020     (0)  \
   FeSO4           1.306e-12   1.306e-12   -11.884   -11.884     0.000     33.50\
   Fe(OH)2         1.944e-16   1.945e-16   -15.711   -15.711     0.000     (0)  \
   FeHSO4+         1.498e-18   1.430e-18   -17.825   -17.845    -0.020     (0)  \
   Fe(OH)3-        3.957e-20   3.779e-20   -19.403   -19.423    -0.020     (0)  \
Fe(3)         2.496e-10\
   Fe(OH)2+        1.745e-10   1.667e-10    -9.758    -9.778    -0.020     (0)  \
   Fe(OH)3         7.467e-11   7.470e-11   -10.127   -10.127     0.000     (0)  \
   Fe(OH)4-        2.585e-13   2.470e-13   -12.587   -12.607    -0.020     (0)  \
   FeOH+2          1.625e-13   1.351e-13   -12.789   -12.869    -0.080     (0)  \
   Fe+3            1.073e-17   7.233e-18   -16.970   -17.141    -0.171     (0)  \
   FeSO4+          3.969e-20   3.790e-20   -19.401   -19.421    -0.020     (0)  \
   Fe2(OH)2+4      1.706e-24   8.091e-25   -23.768   -24.092    -0.324     (0)  \
   Fe(SO4)2-       5.174e-25   4.938e-25   -24.286   -24.306    -0.020     (0)  \
   FeHSO4+2        2.133e-26   1.770e-26   -25.671   -25.752    -0.081     (0)  \
   Fe3(OH)4+5      2.753e-31   8.581e-32   -30.560   -31.066    -0.506     (0)  \
H(0)          4.603e-25\
   H2              2.301e-25   2.302e-25   -24.638   -24.638     0.000     28.62\
K             7.668e-06\
   K+              7.659e-06   7.308e-06    -5.116    -5.136    -0.020      8.57\
   KHCO3           8.877e-09   8.877e-09    -8.052    -8.052     0.000     40.94\
   KSO4-           7.026e-11   6.717e-11   -10.153   -10.173    -0.020     12.89\
Mg            6.256e-06\
   Mg+2            6.055e-06   5.047e-06    -5.218    -5.297    -0.079    -21.34\
   MgHCO3+         1.972e-07   1.883e-07    -6.705    -6.725    -0.020      5.08\
   MgCO3           2.805e-09   2.807e-09    -8.552    -8.552     0.000    -17.08\
   MgSO4           6.105e-10   6.111e-10    -9.214    -9.214     0.000    -12.69\
   MgOH+           3.795e-11   3.628e-11   -10.421   -10.440    -0.020     (0)  \
   Mg(SO4)2-2      1.881e-15   1.572e-15   -14.726   -14.803    -0.078     -4.08\
Mn(2)         2.367e-09\
   Mn+2            1.816e-09   1.514e-09    -8.741    -8.820    -0.079    -21.08\
   MnHCO3+         4.673e-10   4.463e-10    -9.330    -9.350    -0.020     (0)  \
   MnCO3           8.370e-11   8.373e-11   -10.077   -10.077     0.000     (0)  \
   MnSO4           1.334e-13   1.335e-13   -12.875   -12.875     0.000     28.68\
   MnOH+           8.968e-14   8.564e-14   -13.047   -13.067    -0.020     (0)  \
   Mn(OH)3-        5.127e-24   4.897e-24   -23.290   -23.310    -0.020     (0)  \
Mn(3)         1.190e-31\
   Mn+3            1.190e-31   8.025e-32   -30.924   -31.096    -0.171     (0)  \
Na            5.224e-05\
   Na+             5.213e-05   4.978e-05    -4.283    -4.303    -0.020     -2.20\
   NaHCO3          1.017e-07   1.018e-07    -6.993    -6.992     0.000     31.83\
   NaSO4-          4.717e-10   4.506e-10    -9.326    -9.346    -0.020    -22.34\
   NaOH            1.160e-22   1.160e-22   -21.936   -21.935     0.000     (0)  \
O(0)          0.000e+00\
   O2              0.000e+00   0.000e+00   -47.000   -47.000     0.000     29.34\
S(6)          7.540e-07\
   SO4-2           7.507e-07   6.242e-07    -6.125    -6.205    -0.080     14.05\
   CaSO4           2.188e-09   2.189e-09    -8.660    -8.660     0.000      6.98\
   MgSO4           6.105e-10   6.111e-10    -9.214    -9.214     0.000    -12.69\
   NaSO4-          4.717e-10   4.506e-10    -9.326    -9.346    -0.020    -22.34\
   KSO4-           7.026e-11   6.717e-11   -10.153   -10.173    -0.020     12.89\
   HSO4-           8.490e-12   8.103e-12   -11.071   -11.091    -0.020     39.30\
   FeSO4           1.306e-12   1.306e-12   -11.884   -11.884     0.000     33.50\
   MnSO4           1.334e-13   1.335e-13   -12.875   -12.875     0.000     28.68\
   CaHSO4+         2.204e-15   2.104e-15   -14.657   -14.677    -0.020     (0)  \
   Mg(SO4)2-2      1.881e-15   1.572e-15   -14.726   -14.803    -0.078     -4.08\
   FeHSO4+         1.498e-18   1.430e-18   -17.825   -17.845    -0.020     (0)  \
   FeSO4+          3.969e-20   3.790e-20   -19.401   -19.421    -0.020     (0)  \
   Fe(SO4)2-       5.174e-25   4.938e-25   -24.286   -24.306    -0.020     (0)  \
   FeHSO4+2        2.133e-26   1.770e-26   -25.671   -25.752    -0.081     (0)  \
Si            8.364e-05\
   H4SiO4          8.359e-05   8.363e-05    -4.078    -4.078     0.000     53.24\
   H3SiO4-         4.920e-08   4.696e-08    -7.308    -7.328    -0.020     27.58\
   H2SiO4-2        1.005e-14   8.371e-15   -13.998   -14.077    -0.080     (0)  \
\
------------------------------Saturation indices-------------------------------\
\
  Phase               SI** log IAP   log K(286 K,   1 atm)\
\
  Anhydrite        -6.72    -10.87   -4.16  CaSO4\
  Aragonite        -2.55    -10.82   -8.27  CaCO3\
  Arcanite        -14.43    -16.48   -2.05  K2SO4\
  Calcite          -2.41    -10.82   -8.41  CaCO3\
  Chalcedony       -0.39     -4.08   -3.69  SiO2\
  Chrysotile      -17.12     16.57   33.69  Mg3Si2O5(OH)4\
  CO2(g)           -1.50     -2.82   -1.32  CO2\
  Dolomite         -5.36    -22.28  -16.92  CaMg(CO3)2\
  Epsomite         -9.69    -11.50   -1.81  MgSO4:7H2O\
  Fe(OH)3(a)       -1.72      3.17    4.89  Fe(OH)3\
  Goethite          3.74      3.17   -0.57  FeOOH\
  Gypsum           -6.28    -10.87   -4.59  CaSO4:2H2O\
  H2(g)           -21.57    -24.64   -3.07  H2\
  H2O(g)           -1.81     -0.00    1.81  H2O\
  Hausmannite     -28.32     35.70   64.02  Mn3O4\
  Hematite          9.43      6.34   -3.09  Fe2O3\
  Hexahydrite      -9.92    -11.50   -1.58  MgSO4:6H2O\
  Jarosite-K      -20.07    -28.35   -8.28  KFe3(SO4)2(OH)6\
  Kieserite       -10.24    -11.50   -1.27  MgSO4:H2O\
  Manganite        -9.85     15.49   25.34  MnOOH\
  Melanterite     -11.68    -14.04   -2.36  FeSO4:7H2O\
  Mirabilite      -13.02    -14.81   -1.79  Na2SO4:10H2O\
  O2(g)           -44.20    -47.00   -2.80  O2\
  Pyrochroite     -10.48      4.72   15.20  Mn(OH)2\
  Pyrolusite      -17.05     26.26   43.31  MnO2:H2O\
  Quartz            0.08     -4.08   -4.16  SiO2\
  Rhodochrosite    -3.89    -14.98  -11.09  MnCO3\
  Sepiolite       -11.82      4.25   16.08  Mg2Si3O7.5OH:3H2O\
  Sepiolite(d)    -14.41      4.25   18.66  Mg2Si3O7.5OH:3H2O\
  Siderite         -3.17    -13.99  -10.82  FeCO3\
  SiO2(a)          -1.27     -4.08   -2.81  SiO2\
  Talc            -14.36      8.42   22.77  Mg3Si4O10(OH)2\
  Thenardite      -14.57    -14.81   -0.25  Na2SO4\
\
**For a gas, SI = log10(fugacity). Fugacity = pressure * phi / 1 atm.\
  For ideal gases, phi = 1.\
\
Initial solution 73.	NEP22-13\
\
WARNING: Equivalent wt for alkalinity should be Ca.5(CO3).5. Using 50.0455 g/eq.\
-----------------------------Solution composition------------------------------\
\
	Elements           Molality       Moles\
\
	Alkalinity        3.144e-03   3.144e-03\
	Ca                3.935e-05   3.935e-05\
	Fe                3.786e-08   3.786e-08\
	K                 9.873e-06   9.873e-06\
	Mg                1.090e-05   1.090e-05\
	Mn                4.005e-09   4.005e-09\
	Na                7.311e-05   7.311e-05\
	S(6)              1.591e-06   1.591e-06\
	Si                8.812e-05   8.812e-05\
\
----------------------------Description of solution----------------------------\
\
                                       pH  =   6.760    \
                                       pe  =   4.000    \
      Specific Conductance (\'b5S/cm,  15\'b0C)  = 110\
                          Density (g/cm\'b3)  =   0.99924\
                               Volume (L)  =   1.00103\
                        Viscosity (mPa s)  =   1.13936\
                        Activity of water  =   1.000\
                 Ionic strength (mol/kgw)  =   1.717e-03\
                       Mass of water (kg)  =   1.000e+00\
                    Total carbon (mol/kg)  =   4.513e-03\
                       Total CO2 (mol/kg)  =   4.513e-03\
                         Temperature (\'b0C)  =  15.00\
                  Electrical balance (eq)  =  -2.964e-03\
 Percent error, 100*(Cat-|An|)/(Cat+|An|)  = -89.01\
                               Iterations  =  10 (38 overall)\
                                  Total H  = 1.110159e+02\
                                  Total O  = 5.551875e+01\
\
----------------------------Distribution of species----------------------------\
\
                                               Log       Log       Log    mole V\
   Species          Molality    Activity  Molality  Activity     Gamma   cm\'b3/mol\
\
   H+              1.814e-07   1.738e-07    -6.741    -6.760    -0.019      0.00\
   OH-             2.732e-08   2.610e-08    -7.563    -7.583    -0.020     -4.62\
   H2O             5.551e+01   9.999e-01     1.744    -0.000     0.000     18.03\
C(4)          4.513e-03\
   HCO3-           3.142e-03   3.005e-03    -2.503    -2.522    -0.019     23.58\
   CO2             1.370e-03   1.370e-03    -2.863    -2.863     0.000     33.93\
   CO3-2           7.708e-07   6.448e-07    -6.113    -6.191    -0.077     -5.22\
   MgHCO3+         3.152e-07   3.012e-07    -6.501    -6.521    -0.020      5.14\
   CaHCO3+         2.501e-07   2.393e-07    -6.602    -6.621    -0.019    122.20\
   NaHCO3          1.360e-07   1.361e-07    -6.867    -6.866     0.000     31.82\
   CaCO3           3.011e-08   3.012e-08    -7.521    -7.521     0.000    -14.63\
   (CO2)2          2.427e-08   2.428e-08    -7.615    -7.615     0.000     67.86\
   KHCO3           1.069e-08   1.069e-08    -7.971    -7.971     0.000     40.95\
   FeHCO3+         7.701e-09   7.360e-09    -8.113    -8.133    -0.020     (0)  \
   MgCO3           4.674e-09   4.676e-09    -8.330    -8.330     0.000    -17.08\
   MnHCO3+         7.355e-10   7.033e-10    -9.133    -9.153    -0.019     (0)  \
   FeCO3           3.787e-10   3.788e-10    -9.422    -9.422     0.000     (0)  \
   MnCO3           1.344e-10   1.345e-10    -9.871    -9.871     0.000     (0)  \
Ca            3.935e-05\
   Ca+2            3.906e-05   3.267e-05    -4.408    -4.486    -0.078    -18.27\
   CaHCO3+         2.501e-07   2.393e-07    -6.602    -6.621    -0.019    122.20\
   CaCO3           3.011e-08   3.012e-08    -7.521    -7.521     0.000    -14.63\
   CaSO4           7.094e-09   7.097e-09    -8.149    -8.149     0.000      7.06\
   CaOH+           3.264e-11   3.119e-11   -10.486   -10.506    -0.020     (0)  \
   CaHSO4+         7.439e-15   7.109e-15   -14.128   -14.148    -0.020     (0)  \
Fe(2)         3.734e-08\
   Fe+2            2.923e-08   2.449e-08    -7.534    -7.611    -0.077    -22.83\
   FeHCO3+         7.701e-09   7.360e-09    -8.113    -8.133    -0.020     (0)  \
   FeCO3           3.787e-10   3.788e-10    -9.422    -9.422     0.000     (0)  \
   FeOH+           2.151e-11   2.057e-11   -10.667   -10.687    -0.019     (0)  \
   FeSO4           4.757e-12   4.759e-12   -11.323   -11.323     0.000     31.17\
   Fe(OH)2         4.094e-16   4.095e-16   -15.388   -15.388     0.000     (0)  \
   FeHSO4+         5.577e-18   5.329e-18   -17.254   -17.273    -0.020     (0)  \
   Fe(OH)3-        8.272e-20   7.909e-20   -19.082   -19.102    -0.019     (0)  \
Fe(3)         5.243e-10\
   Fe(OH)2+        3.606e-10   3.449e-10    -9.443    -9.462    -0.019     (0)  \
   Fe(OH)3         1.628e-10   1.629e-10    -9.788    -9.788     0.000     (0)  \
   Fe(OH)4-        5.896e-13   5.638e-13   -12.229   -12.249    -0.019     (0)  \
   FeOH+2          3.207e-13   2.680e-13   -12.494   -12.572    -0.078     (0)  \
   Fe+3            1.948e-17   1.327e-17   -16.710   -16.877    -0.167     (0)  \
   FeSO4+          1.597e-19   1.527e-19   -18.797   -18.816    -0.019     (0)  \
   Fe2(OH)2+4      6.127e-24   2.965e-24   -23.213   -23.528    -0.315     (0)  \
   Fe(SO4)2-       4.433e-24   4.237e-24   -23.353   -23.373    -0.020     (0)  \
   FeHSO4+2        8.695e-26   7.252e-26   -25.061   -25.140    -0.079     (0)  \
   Fe3(OH)4+5      1.726e-30   5.551e-31   -29.763   -30.256    -0.493     (0)  \
H(0)          4.738e-25\
   H2              2.369e-25   2.370e-25   -24.625   -24.625     0.000     28.62\
K             9.873e-06\
   K+              9.862e-06   9.422e-06    -5.006    -5.026    -0.020      8.64\
   KHCO3           1.069e-08   1.069e-08    -7.971    -7.971     0.000     40.95\
   KSO4-           1.919e-10   1.837e-10    -9.717    -9.736    -0.019     13.10\
Mg            1.090e-05\
   Mg+2            1.058e-05   8.861e-06    -4.975    -5.053    -0.077    -21.41\
   MgHCO3+         3.152e-07   3.012e-07    -6.501    -6.521    -0.020      5.14\
   MgCO3           4.674e-09   4.676e-09    -8.330    -8.330     0.000    -17.08\
   MgSO4           2.364e-09   2.365e-09    -8.626    -8.626     0.000    -11.92\
   MgOH+           7.599e-11   7.272e-11   -10.119   -10.138    -0.019     (0)  \
   Mg(SO4)2-2      1.484e-14   1.247e-14   -13.828   -13.904    -0.076     -4.06\
Mn(2)         4.005e-09\
   Mn+2            3.135e-09   2.626e-09    -8.504    -8.581    -0.077    -21.05\
   MnHCO3+         7.355e-10   7.033e-10    -9.133    -9.153    -0.019     (0)  \
   MnCO3           1.344e-10   1.345e-10    -9.871    -9.871     0.000     (0)  \
   MnSO4           5.058e-13   5.060e-13   -12.296   -12.296     0.000     27.69\
   MnOH+           1.747e-13   1.671e-13   -12.758   -12.777    -0.019     (0)  \
   Mn(OH)3-        8.291e-24   7.928e-24   -23.081   -23.101    -0.019     (0)  \
Mn(3)         2.629e-31\
   Mn+3            2.629e-31   1.791e-31   -30.580   -30.747    -0.167     (0)  \
Na            7.311e-05\
   Na+             7.298e-05   6.976e-05    -4.137    -4.156    -0.020     -2.08\
   NaHCO3          1.360e-07   1.361e-07    -6.867    -6.866     0.000     31.82\
   NaSO4-          1.423e-09   1.361e-09    -8.847    -8.866    -0.019    -22.05\
   NaOH            1.820e-22   1.821e-22   -21.740   -21.740     0.000     (0)  \
O(0)          0.000e+00\
   O2              0.000e+00   0.000e+00   -46.469   -46.469     0.000     29.51\
S(6)          1.591e-06\
   SO4-2           1.580e-06   1.320e-06    -5.801    -5.879    -0.078     14.34\
   CaSO4           7.094e-09   7.097e-09    -8.149    -8.149     0.000      7.06\
   MgSO4           2.364e-09   2.365e-09    -8.626    -8.626     0.000    -11.92\
   NaSO4-          1.423e-09   1.361e-09    -8.847    -8.866    -0.019    -22.05\
   KSO4-           1.919e-10   1.837e-10    -9.717    -9.736    -0.019     13.10\
   HSO4-           1.894e-11   1.810e-11   -10.723   -10.742    -0.020     39.46\
   FeSO4           4.757e-12   4.759e-12   -11.323   -11.323     0.000     31.17\
   MnSO4           5.058e-13   5.060e-13   -12.296   -12.296     0.000     27.69\
   Mg(SO4)2-2      1.484e-14   1.247e-14   -13.828   -13.904    -0.076     -4.06\
   CaHSO4+         7.439e-15   7.109e-15   -14.128   -14.148    -0.020     (0)  \
   FeHSO4+         5.577e-18   5.329e-18   -17.254   -17.273    -0.020     (0)  \
   FeSO4+          1.597e-19   1.527e-19   -18.797   -18.816    -0.019     (0)  \
   Fe(SO4)2-       4.433e-24   4.237e-24   -23.353   -23.373    -0.020     (0)  \
   FeHSO4+2        8.695e-26   7.252e-26   -25.061   -25.140    -0.079     (0)  \
Si            8.812e-05\
   H4SiO4          8.807e-05   8.810e-05    -4.055    -4.055     0.000     53.05\
   H3SiO4-         5.395e-08   5.155e-08    -7.268    -7.288    -0.020     27.65\
   H2SiO4-2        1.208e-14   1.011e-14   -13.918   -13.995    -0.077     (0)  \
\
------------------------------Saturation indices-------------------------------\
\
  Phase               SI** log IAP   log K(288 K,   1 atm)\
\
  Anhydrite        -6.19    -10.37   -4.17  CaSO4\
  Aragonite        -2.40    -10.68   -8.28  CaCO3\
  Arcanite        -13.91    -15.93   -2.02  K2SO4\
  Calcite          -2.25    -10.68   -8.42  CaCO3\
  Chalcedony       -0.38     -4.05   -3.67  SiO2\
  Chrysotile      -16.19     17.29   33.48  Mg3Si2O5(OH)4\
  CO2(g)           -1.52     -2.86   -1.34  CO2\
  Dolomite         -4.98    -21.92  -16.94  CaMg(CO3)2\
  Epsomite         -9.13    -10.93   -1.80  MgSO4:7H2O\
  Fe(OH)3(a)       -1.49      3.40    4.89  Fe(OH)3\
  Goethite          4.03      3.40   -0.63  FeOOH\
  Gypsum           -5.78    -10.37   -4.59  CaSO4:2H2O\
  H2(g)           -21.55    -24.63   -3.07  H2\
  H2O(g)           -1.77     -0.00    1.77  H2O\
  Hausmannite     -27.25     36.34   63.59  Mn3O4\
  Hematite         10.03      6.81   -3.22  Fe2O3\
  Hexahydrite      -9.35    -10.93   -1.58  MgSO4:6H2O\
  Jarosite-K      -18.44    -26.86   -8.41  KFe3(SO4)2(OH)6\
  Kieserite        -9.69    -10.93   -1.25  MgSO4:H2O\
  Manganite        -9.64     15.70   25.34  MnOOH\
  Melanterite     -11.15    -13.49   -2.34  FeSO4:7H2O\
  Mirabilite      -12.49    -14.19   -1.71  Na2SO4:10H2O\
  O2(g)           -43.66    -46.47   -2.81  O2\
  Pyrochroite     -10.26      4.94   15.20  Mn(OH)2\
  Pyrolusite      -16.58     26.46   43.04  MnO2:H2O\
  Quartz            0.08     -4.05   -4.13  SiO2\
  Rhodochrosite    -3.68    -14.77  -11.09  MnCO3\
  Sepiolite       -11.26      4.77   16.03  Mg2Si3O7.5OH:3H2O\
  Sepiolite(d)    -13.89      4.77   18.66  Mg2Si3O7.5OH:3H2O\
  Siderite         -2.97    -13.80  -10.83  FeCO3\
  SiO2(a)          -1.26     -4.05   -2.80  SiO2\
  Talc            -13.40      9.18   22.58  Mg3Si4O10(OH)2\
  Thenardite      -13.94    -14.19   -0.25  Na2SO4\
\
**For a gas, SI = log10(fugacity). Fugacity = pressure * phi / 1 atm.\
  For ideal gases, phi = 1.\
\
Initial solution 75.	NEP22-15\
\
WARNING: Equivalent wt for alkalinity should be Ca.5(CO3).5. Using 50.0455 g/eq.\
-----------------------------Solution composition------------------------------\
\
	Elements           Molality       Moles\
\
	Alkalinity        5.006e-03   5.006e-03\
	Ca                8.178e-05   8.178e-05\
	Fe                4.969e-08   4.969e-08\
	K                 1.175e-05   1.175e-05\
	Mg                1.605e-05   1.605e-05\
	Mn                4.006e-09   4.006e-09\
	Na                1.095e-04   1.095e-04\
	S(6)              2.680e-06   2.680e-06\
	Si                1.130e-04   1.130e-04\
\
----------------------------Description of solution----------------------------\
\
                                       pH  =   7.290    \
                                       pe  =   4.000    \
      Specific Conductance (\'b5S/cm,  15\'b0C)  = 174\
                          Density (g/cm\'b3)  =   0.99937\
                               Volume (L)  =   1.00099\
                        Viscosity (mPa s)  =   1.15245\
                        Activity of water  =   1.000\
                 Ionic strength (mol/kgw)  =   2.765e-03\
                       Mass of water (kg)  =   1.000e+00\
                    Total carbon (mol/kg)  =   5.642e-03\
                       Total CO2 (mol/kg)  =   5.642e-03\
                         Temperature (\'b0C)  =  14.60\
                  Electrical balance (eq)  =  -4.695e-03\
 Percent error, 100*(Cat-|An|)/(Cat+|An|)  = -88.18\
                               Iterations  =   8 (46 overall)\
                                  Total H  = 1.110179e+02\
                                  Total O  = 5.552296e+01\
\
----------------------------Distribution of species----------------------------\
\
                                               Log       Log       Log    mole V\
   Species          Molality    Activity  Molality  Activity     Gamma   cm\'b3/mol\
\
   OH-             9.054e-08   8.550e-08    -7.043    -7.068    -0.025     -4.63\
   H+              5.405e-08   5.129e-08    -7.267    -7.290    -0.023      0.00\
   H2O             5.551e+01   9.999e-01     1.744    -0.000     0.000     18.03\
C(4)          5.642e-03\
   HCO3-           4.995e-03   4.725e-03    -2.301    -2.326    -0.024     23.54\
   CO2             6.402e-04   6.405e-04    -3.194    -3.193     0.000     33.91\
   CO3-2           4.246e-06   3.400e-06    -5.372    -5.469    -0.096     -5.25\
   CaHCO3+         7.712e-07   7.299e-07    -6.113    -6.137    -0.024    122.18\
   MgHCO3+         6.945e-07   6.562e-07    -6.158    -6.183    -0.025      5.14\
   NaHCO3          3.124e-07   3.128e-07    -6.505    -6.505     0.001     31.82\
   CaCO3           3.123e-07   3.125e-07    -6.505    -6.505     0.000    -14.64\
   MgCO3           3.396e-08   3.398e-08    -7.469    -7.469     0.000    -17.08\
   KHCO3           1.963e-08   1.963e-08    -7.707    -7.707     0.000     40.95\
   FeHCO3+         1.113e-08   1.052e-08    -7.953    -7.978    -0.025     (0)  \
   (CO2)2          5.226e-09   5.230e-09    -8.282    -8.282     0.000     67.82\
   FeCO3           1.815e-09   1.816e-09    -8.741    -8.741     0.000     (0)  \
   MnHCO3+         9.092e-10   8.598e-10    -9.041    -9.066    -0.024     (0)  \
   MnCO3           5.510e-10   5.514e-10    -9.259    -9.259     0.000     (0)  \
Ca            8.178e-05\
   Ca+2            8.067e-05   6.458e-05    -4.093    -4.190    -0.097    -18.25\
   CaHCO3+         7.712e-07   7.299e-07    -6.113    -6.137    -0.024    122.18\
   CaCO3           3.123e-07   3.125e-07    -6.505    -6.505     0.000    -14.64\
   CaSO4           2.241e-08   2.243e-08    -7.650    -7.649     0.000      7.04\
   CaOH+           2.211e-10   2.089e-10    -9.655    -9.680    -0.025     (0)  \
   CaHSO4+         6.983e-15   6.598e-15   -14.156   -14.181    -0.025     (0)  \
Fe(2)         4.076e-08\
   Fe+2            2.774e-08   2.226e-08    -7.557    -7.652    -0.096    -22.83\
   FeHCO3+         1.113e-08   1.052e-08    -7.953    -7.978    -0.025     (0)  \
   FeCO3           1.815e-09   1.816e-09    -8.741    -8.741     0.000     (0)  \
   FeOH+           6.488e-11   6.135e-11   -10.188   -10.212    -0.024     (0)  \
   FeSO4           6.879e-12   6.883e-12   -11.162   -11.162     0.000     31.74\
   Fe(OH)2         3.985e-15   3.988e-15   -14.400   -14.399     0.000     (0)  \
   Fe(OH)3-        2.748e-18   2.599e-18   -17.561   -17.585    -0.024     (0)  \
   FeHSO4+         2.408e-18   2.275e-18   -17.618   -17.643    -0.025     (0)  \
Fe(3)         8.925e-09\
   Fe(OH)3         5.293e-09   5.297e-09    -8.276    -8.276     0.000     (0)  \
   Fe(OH)2+        3.566e-09   3.373e-09    -8.448    -8.472    -0.024     (0)  \
   Fe(OH)4-        6.456e-11   6.108e-11   -10.190   -10.214    -0.024     (0)  \
   FeOH+2          9.833e-13   7.863e-13   -12.007   -12.104    -0.097     (0)  \
   Fe+3            1.891e-17   1.178e-17   -16.723   -16.929    -0.205     (0)  \
   FeSO4+          2.278e-19   2.154e-19   -18.642   -18.667    -0.024     (0)  \
   Fe2(OH)2+4      6.436e-23   2.597e-23   -22.191   -22.585    -0.394     (0)  \
   Fe(SO4)2-       1.013e-23   9.568e-24   -22.995   -23.019    -0.025     (0)  \
   FeHSO4+2        3.793e-26   3.023e-26   -25.421   -25.519    -0.099     (0)  \
   Fe3(OH)4+5      2.042e-28   4.947e-29   -27.690   -28.306    -0.616     (0)  \
H(0)          4.143e-26\
   H2              2.072e-26   2.073e-26   -25.684   -25.683     0.000     28.62\
K             1.175e-05\
   K+              1.173e-05   1.108e-05    -4.931    -4.955    -0.025      8.63\
   KHCO3           1.963e-08   1.963e-08    -7.707    -7.707     0.000     40.95\
   KSO4-           3.654e-10   3.461e-10    -9.437    -9.461    -0.024     13.06\
Mg            1.605e-05\
   Mg+2            1.532e-05   1.229e-05    -4.815    -4.911    -0.096    -21.36\
   MgHCO3+         6.945e-07   6.562e-07    -6.158    -6.183    -0.025      5.14\
   MgCO3           3.396e-08   3.398e-08    -7.469    -7.469     0.000    -17.08\
   MgSO4           5.199e-09   5.205e-09    -8.284    -8.284     0.001    -12.11\
   MgOH+           3.471e-10   3.287e-10    -9.460    -9.483    -0.024     (0)  \
   Mg(SO4)2-2      5.506e-14   4.435e-14   -13.259   -13.353    -0.094     -1.82\
Mn(2)         4.006e-09\
   Mn+2            2.544e-09   2.042e-09    -8.594    -8.690    -0.096    -20.83\
   MnHCO3+         9.092e-10   8.598e-10    -9.041    -9.066    -0.024     (0)  \
   MnCO3           5.510e-10   5.514e-10    -9.259    -9.259     0.000     (0)  \
   MnSO4           6.254e-13   6.258e-13   -12.204   -12.204     0.000     27.93\
   MnOH+           4.495e-13   4.250e-13   -12.347   -12.372    -0.024     (0)  \
   Mn(OH)3-        2.536e-22   2.398e-22   -21.596   -21.620    -0.024     (0)  \
Mn(3)         2.099e-31\
   Mn+3            2.099e-31   1.308e-31   -30.678   -30.884    -0.205     (0)  \
Na            1.095e-04\
   Na+             1.092e-04   1.032e-04    -3.962    -3.986    -0.024     -2.09\
   NaHCO3          3.124e-07   3.128e-07    -6.505    -6.505     0.001     31.82\
   NaSO4-          3.399e-09   3.215e-09    -8.469    -8.493    -0.024    -21.03\
   NaOH            8.822e-22   8.828e-22   -21.054   -21.054     0.000     (0)  \
O(0)          0.000e+00\
   O2              0.000e+00   0.000e+00   -44.491   -44.491     0.000     29.46\
S(6)          2.680e-06\
   SO4-2           2.648e-06   2.117e-06    -5.577    -5.674    -0.097     14.64\
   CaSO4           2.241e-08   2.243e-08    -7.650    -7.649     0.000      7.04\
   MgSO4           5.199e-09   5.205e-09    -8.284    -8.284     0.001    -12.11\
   NaSO4-          3.399e-09   3.215e-09    -8.469    -8.493    -0.024    -21.03\
   KSO4-           3.654e-10   3.461e-10    -9.437    -9.461    -0.024     13.06\
   HSO4-           8.995e-12   8.499e-12   -11.046   -11.071    -0.025     39.43\
   FeSO4           6.879e-12   6.883e-12   -11.162   -11.162     0.000     31.74\
   MnSO4           6.254e-13   6.258e-13   -12.204   -12.204     0.000     27.93\
   Mg(SO4)2-2      5.506e-14   4.435e-14   -13.259   -13.353    -0.094     -1.82\
   CaHSO4+         6.983e-15   6.598e-15   -14.156   -14.181    -0.025     (0)  \
   FeHSO4+         2.408e-18   2.275e-18   -17.618   -17.643    -0.025     (0)  \
   FeSO4+          2.278e-19   2.154e-19   -18.642   -18.667    -0.024     (0)  \
   Fe(SO4)2-       1.013e-23   9.568e-24   -22.995   -23.019    -0.025     (0)  \
   FeHSO4+2        3.793e-26   3.023e-26   -25.421   -25.519    -0.099     (0)  \
Si            1.130e-04\
   H4SiO4          1.128e-04   1.129e-04    -3.948    -3.947     0.000     53.10\
   H3SiO4-         2.331e-07   2.203e-07    -6.632    -6.657    -0.025     27.64\
   H2SiO4-2        1.775e-13   1.421e-13   -12.751   -12.847    -0.096     (0)  \
\
------------------------------Saturation indices-------------------------------\
\
  Phase               SI** log IAP   log K(287 K,   1 atm)\
\
  Anhydrite        -5.70     -9.86   -4.17  CaSO4\
  Aragonite        -1.38     -9.66   -8.28  CaCO3\
  Arcanite        -13.55    -15.59   -2.03  K2SO4\
  Calcite          -1.24     -9.66   -8.42  CaCO3\
  Chalcedony       -0.27     -3.95   -3.68  SiO2\
  Chrysotile      -12.42     21.11   33.54  Mg3Si2O5(OH)4\
  CO2(g)           -1.86     -3.19   -1.34  CO2\
  Dolomite         -3.11    -20.04  -16.93  CaMg(CO3)2\
  Epsomite         -8.78    -10.59   -1.80  MgSO4:7H2O\
  Fe(OH)3(a)        0.05      4.94    4.89  Fe(OH)3\
  Goethite          5.56      4.94   -0.62  FeOOH\
  Gypsum           -5.27     -9.86   -4.59  CaSO4:2H2O\
  H2(g)           -22.61    -25.68   -3.07  H2\
  H2O(g)           -1.78     -0.00    1.78  H2O\
  Hausmannite     -23.45     40.25   63.70  Mn3O4\
  Hematite         13.07      9.88   -3.19  Fe2O3\
  Hexahydrite      -9.00    -10.59   -1.58  MgSO4:6H2O\
  Jarosite-K      -14.97    -23.35   -8.38  KFe3(SO4)2(OH)6\
  Kieserite        -9.33    -10.58   -1.25  MgSO4:H2O\
  Manganite        -8.16     17.18   25.34  MnOOH\
  Melanterite     -10.98    -13.33   -2.34  FeSO4:7H2O\
  Mirabilite      -11.92    -13.65   -1.73  Na2SO4:10H2O\
  O2(g)           -41.68    -44.49   -2.81  O2\
  Pyrochroite      -9.31      5.89   15.20  Mn(OH)2\
  Pyrolusite      -14.64     28.47   43.10  MnO2:H2O\
  Quartz            0.19     -3.95   -4.14  SiO2\
  Rhodochrosite    -3.07    -14.16  -11.09  MnCO3\
  Sepiolite        -8.55      7.50   16.04  Mg2Si3O7.5OH:3H2O\
  Sepiolite(d)    -11.16      7.50   18.66  Mg2Si3O7.5OH:3H2O\
  Siderite         -2.30    -13.12  -10.82  FeCO3\
  SiO2(a)          -1.15     -3.95   -2.80  SiO2\
  Talc             -9.41     13.22   22.63  Mg3Si4O10(OH)2\
  Thenardite      -13.40    -13.65   -0.25  Na2SO4\
\
**For a gas, SI = log10(fugacity). Fugacity = pressure * phi / 1 atm.\
  For ideal gases, phi = 1.\
\
Initial solution 76.	NEP22-16\
\
WARNING: Equivalent wt for alkalinity should be Ca.5(CO3).5. Using 50.0455 g/eq.\
-----------------------------Solution composition------------------------------\
\
	Elements           Molality       Moles\
\
	Alkalinity        3.415e-03   3.415e-03\
	Ca                3.432e-05   3.432e-05\
	Fe                3.416e-08   3.416e-08\
	K                 7.994e-06   7.994e-06\
	Mg                9.441e-06   9.441e-06\
	Mn                5.462e-10   5.462e-10\
	Na                4.485e-05   4.485e-05\
	S(6)              1.183e-06   1.183e-06\
	Si                8.446e-05   8.446e-05\
\
----------------------------Description of solution----------------------------\
\
                                       pH  =   7.140    \
                                       pe  =   4.000    \
      Specific Conductance (\'b5S/cm,  12\'b0C)  = 106\
                          Density (g/cm\'b3)  =   0.99967\
                               Volume (L)  =   1.00057\
                        Viscosity (mPa s)  =   1.24651\
                        Activity of water  =   1.000\
                 Ionic strength (mol/kgw)  =   1.824e-03\
                       Mass of water (kg)  =   1.000e+00\
                    Total carbon (mol/kg)  =   4.073e-03\
                       Total CO2 (mol/kg)  =   4.073e-03\
                         Temperature (\'b0C)  =  11.70\
                  Electrical balance (eq)  =  -3.276e-03\
 Percent error, 100*(Cat-|An|)/(Cat+|An|)  = -92.14\
                               Iterations  =   9 (55 overall)\
                                  Total H  = 1.110162e+02\
                                  Total O  = 5.551812e+01\
\
----------------------------Distribution of species----------------------------\
\
                                               Log       Log       Log    mole V\
   Species          Molality    Activity  Molality  Activity     Gamma   cm\'b3/mol\
\
   H+              7.567e-08   7.244e-08    -7.121    -7.140    -0.019      0.00\
   OH-             4.942e-08   4.716e-08    -7.306    -7.326    -0.020     -4.86\
   H2O             5.551e+01   9.999e-01     1.744    -0.000     0.000     18.02\
C(4)          4.073e-03\
   HCO3-           3.410e-03   3.258e-03    -2.467    -2.487    -0.020     23.13\
   CO2             6.609e-04   6.611e-04    -3.180    -3.180     0.000     33.75\
   CO3-2           1.842e-06   1.535e-06    -5.735    -5.814    -0.079     -5.84\
   MgHCO3+         2.925e-07   2.792e-07    -6.534    -6.554    -0.020      5.00\
   CaHCO3+         2.017e-07   1.927e-07    -6.695    -6.715    -0.020    122.01\
   NaHCO3          8.161e-08   8.168e-08    -7.088    -7.088     0.000     31.84\
   CaCO3           6.021e-08   6.024e-08    -7.220    -7.220     0.000    -14.65\
   MgCO3           9.096e-09   9.099e-09    -8.041    -8.041     0.000    -17.07\
   KHCO3           8.846e-09   8.846e-09    -8.053    -8.053     0.000     40.93\
   FeHCO3+         6.965e-09   6.649e-09    -8.157    -8.177    -0.020     (0)  \
   (CO2)2          4.990e-09   4.992e-09    -8.302    -8.302     0.000     67.51\
   FeCO3           7.511e-10   7.514e-10    -9.124    -9.124     0.000     (0)  \
   MnHCO3+         1.022e-10   9.760e-11    -9.991   -10.011    -0.020     (0)  \
   MnCO3           4.096e-11   4.098e-11   -10.388   -10.387     0.000     (0)  \
Ca            3.432e-05\
   Ca+2            3.406e-05   2.837e-05    -4.468    -4.547    -0.079    -18.36\
   CaHCO3+         2.017e-07   1.927e-07    -6.695    -6.715    -0.020    122.01\
   CaCO3           6.021e-08   6.024e-08    -7.220    -7.220     0.000    -14.65\
   CaSO4           4.445e-09   4.447e-09    -8.352    -8.352     0.000      6.89\
   CaOH+           6.807e-11   6.498e-11   -10.167   -10.187    -0.020     (0)  \
   CaHSO4+         1.873e-15   1.788e-15   -14.727   -14.748    -0.020     (0)  \
Fe(2)         3.222e-08\
   Fe+2            2.446e-08   2.041e-08    -7.611    -7.690    -0.079    -23.12\
   FeHCO3+         6.965e-09   6.649e-09    -8.157    -8.177    -0.020     (0)  \
   FeCO3           7.511e-10   7.514e-10    -9.124    -9.124     0.000     (0)  \
   FeOH+           3.296e-11   3.148e-11   -10.482   -10.502    -0.020     (0)  \
   FeSO4           2.753e-12   2.754e-12   -11.560   -11.560     0.000     36.13\
   Fe(OH)2         1.102e-15   1.102e-15   -14.958   -14.958     0.000     (0)  \
   FeHSO4+         1.348e-18   1.287e-18   -17.870   -17.891    -0.020     (0)  \
   Fe(OH)3-        5.161e-19   4.929e-19   -18.287   -18.307    -0.020     (0)  \
Fe(3)         1.947e-09\
   Fe(OH)2+        1.007e-09   9.622e-10    -8.997    -9.017    -0.020     (0)  \
   Fe(OH)3         9.322e-10   9.326e-10    -9.030    -9.030     0.000     (0)  \
   Fe(OH)4-        7.023e-12   6.710e-12   -11.153   -11.173    -0.020     (0)  \
   FeOH+2          4.289e-13   3.569e-13   -12.368   -12.447    -0.080     (0)  \
   Fe+3            1.346e-17   9.090e-18   -16.871   -17.041    -0.170     (0)  \
   FeSO4+          7.504e-20   7.167e-20   -19.125   -19.145    -0.020     (0)  \
   Fe2(OH)2+4      1.282e-23   6.096e-24   -22.892   -23.215    -0.323     (0)  \
   Fe(SO4)2-       1.522e-24   1.453e-24   -23.817   -23.838    -0.020     (0)  \
   FeHSO4+2        1.733e-26   1.439e-26   -25.761   -25.842    -0.081     (0)  \
   Fe3(OH)4+5      1.414e-29   4.427e-30   -28.850   -29.354    -0.504     (0)  \
H(0)          8.532e-26\
   H2              4.266e-26   4.268e-26   -25.370   -25.370     0.000     28.62\
K             7.994e-06\
   K+              7.985e-06   7.621e-06    -5.098    -5.118    -0.020      8.49\
   KHCO3           8.846e-09   8.846e-09    -8.053    -8.053     0.000     40.93\
   KSO4-           1.146e-10   1.095e-10    -9.941    -9.960    -0.019     12.64\
Mg            9.441e-06\
   Mg+2            9.138e-06   7.621e-06    -5.039    -5.118    -0.079    -21.28\
   MgHCO3+         2.925e-07   2.792e-07    -6.534    -6.554    -0.020      5.00\
   MgCO3           9.096e-09   9.099e-09    -8.041    -8.041     0.000    -17.07\
   MgSO4           1.383e-09   1.384e-09    -8.859    -8.859     0.000    -13.57\
   MgOH+           1.137e-10   1.087e-10    -9.944    -9.964    -0.020     (0)  \
   Mg(SO4)2-2      6.913e-15   5.781e-15   -14.160   -14.238    -0.078     -4.43\
Mn(2)         5.462e-10\
   Mn+2            4.029e-10   3.362e-10    -9.395    -9.473    -0.079    -21.15\
   MnHCO3+         1.022e-10   9.760e-11    -9.991   -10.011    -0.020     (0)  \
   MnCO3           4.096e-11   4.098e-11   -10.388   -10.387     0.000     (0)  \
   MnSO4           4.484e-14   4.486e-14   -13.348   -13.348     0.000     29.79\
   MnOH+           4.014e-14   3.834e-14   -13.396   -13.416    -0.020     (0)  \
   Mn(OH)3-        1.467e-23   1.401e-23   -22.834   -22.854    -0.020     (0)  \
Mn(3)         2.014e-32\
   Mn+3            2.014e-32   1.360e-32   -31.696   -31.866    -0.170     (0)  \
Na            4.485e-05\
   Na+             4.477e-05   4.275e-05    -4.349    -4.369    -0.020     -2.33\
   NaHCO3          8.161e-08   8.168e-08    -7.088    -7.088     0.000     31.84\
   NaSO4-          6.218e-10   5.941e-10    -9.206    -9.226    -0.020    -22.83\
   NaOH            2.016e-22   2.016e-22   -21.696   -21.695     0.000     (0)  \
O(0)          0.000e+00\
   O2              0.000e+00   0.000e+00   -46.133   -46.133     0.000     29.15\
S(6)          1.183e-06\
   SO4-2           1.176e-06   9.786e-07    -5.930    -6.009    -0.080     13.66\
   CaSO4           4.445e-09   4.447e-09    -8.352    -8.352     0.000      6.89\
   MgSO4           1.383e-09   1.384e-09    -8.859    -8.859     0.000    -13.57\
   NaSO4-          6.218e-10   5.941e-10    -9.206    -9.226    -0.020    -22.83\
   KSO4-           1.146e-10   1.095e-10    -9.941    -9.960    -0.019     12.64\
   HSO4-           5.493e-12   5.243e-12   -11.260   -11.280    -0.020     39.11\
   FeSO4           2.753e-12   2.754e-12   -11.560   -11.560     0.000     36.13\
   MnSO4           4.484e-14   4.486e-14   -13.348   -13.348     0.000     29.79\
   Mg(SO4)2-2      6.913e-15   5.781e-15   -14.160   -14.238    -0.078     -4.43\
   CaHSO4+         1.873e-15   1.788e-15   -14.727   -14.748    -0.020     (0)  \
   FeHSO4+         1.348e-18   1.287e-18   -17.870   -17.891    -0.020     (0)  \
   FeSO4+          7.504e-20   7.167e-20   -19.125   -19.145    -0.020     (0)  \
   Fe(SO4)2-       1.522e-24   1.453e-24   -23.817   -23.838    -0.020     (0)  \
   FeHSO4+2        1.733e-26   1.439e-26   -25.761   -25.842    -0.081     (0)  \
Si            8.446e-05\
   H4SiO4          8.435e-05   8.439e-05    -4.074    -4.074     0.000     53.45\
   H3SiO4-         1.085e-07   1.036e-07    -6.964    -6.985    -0.020     27.49\
   H2SiO4-2        4.571e-14   3.808e-14   -13.340   -13.419    -0.079     (0)  \
\
------------------------------Saturation indices-------------------------------\
\
  Phase               SI** log IAP   log K(284 K,   1 atm)\
\
  Anhydrite        -6.42    -10.56   -4.14  CaSO4\
  Aragonite        -2.10    -10.36   -8.26  CaCO3\
  Arcanite        -14.17    -16.25   -2.08  K2SO4\
  Calcite          -1.95    -10.36   -8.41  CaCO3\
  Chalcedony       -0.36     -4.07   -3.71  SiO2\
  Chrysotile      -14.59     19.34   33.92  Mg3Si2O5(OH)4\
  CO2(g)           -1.89     -3.18   -1.29  CO2\
  Dolomite         -4.40    -21.29  -16.90  CaMg(CO3)2\
  Epsomite         -9.31    -11.13   -1.82  MgSO4:7H2O\
  Fe(OH)3(a)       -0.51      4.38    4.89  Fe(OH)3\
  Goethite          4.88      4.38   -0.50  FeOOH\
  Gypsum           -5.96    -10.56   -4.59  CaSO4:2H2O\
  H2(g)           -22.31    -25.37   -3.06  H2\
  H2O(g)           -1.86     -0.00    1.86  H2O\
  Hausmannite     -27.77     36.70   64.47  Mn3O4\
  Hematite         11.71      8.76   -2.95  Fe2O3\
  Hexahydrite      -9.54    -11.13   -1.58  MgSO4:6H2O\
  Jarosite-K      -17.28    -25.42   -8.14  KFe3(SO4)2(OH)6\
  Kieserite        -9.84    -11.13   -1.29  MgSO4:H2O\
  Manganite        -9.39     15.95   25.34  MnOOH\
  Melanterite     -11.31    -13.70   -2.39  FeSO4:7H2O\
  Mirabilite      -12.87    -14.75   -1.88  Na2SO4:10H2O\
  O2(g)           -43.35    -46.13   -2.78  O2\
  Pyrochroite     -10.39      4.81   15.20  Mn(OH)2\
  Pyrolusite      -16.52     27.09   43.61  MnO2:H2O\
  Quartz            0.11     -4.07   -4.19  SiO2\
  Rhodochrosite    -4.21    -15.29  -11.08  MnCO3\
  Sepiolite       -10.02      6.10   16.13  Mg2Si3O7.5OH:3H2O\
  Sepiolite(d)    -12.56      6.10   18.66  Mg2Si3O7.5OH:3H2O\
  Siderite         -2.70    -13.50  -10.81  FeCO3\
  SiO2(a)          -1.25     -4.07   -2.83  SiO2\
  Talc            -11.79     11.19   22.99  Mg3Si4O10(OH)2\
  Thenardite      -14.51    -14.75   -0.24  Na2SO4\
\
**For a gas, SI = log10(fugacity). Fugacity = pressure * phi / 1 atm.\
  For ideal gases, phi = 1.\
\
Initial solution 79.	NEP22-19\
\
WARNING: Equivalent wt for alkalinity should be Ca.5(CO3).5. Using 50.0455 g/eq.\
-----------------------------Solution composition------------------------------\
\
	Elements           Molality       Moles\
\
	Alkalinity        3.669e-03   3.669e-03\
	Ca                3.984e-05   3.984e-05\
	Fe                2.900e-08   2.900e-08\
	K                 1.025e-05   1.025e-05\
	Mg                1.048e-05   1.048e-05\
	Mn                1.893e-08   1.893e-08\
	Na                6.962e-05   6.962e-05\
	S(6)              1.464e-06   1.464e-06\
	Si                8.875e-05   8.875e-05\
\
----------------------------Description of solution----------------------------\
\
                                       pH  =   6.070    \
                                       pe  =   4.000    \
      Specific Conductance (\'b5S/cm,  15\'b0C)  = 128\
                          Density (g/cm\'b3)  =   0.99931\
                               Volume (L)  =   1.00127\
                        Viscosity (mPa s)  =   1.13660\
                        Activity of water  =   1.000\
                 Ionic strength (mol/kgw)  =   1.978e-03\
                       Mass of water (kg)  =   1.000e+00\
                    Total carbon (mol/kg)  =   1.147e-02\
                       Total CO2 (mol/kg)  =   1.147e-02\
                         Temperature (\'b0C)  =  15.10\
                  Electrical balance (eq)  =  -3.492e-03\
[...]
   Fe3(OH)4+5      6.226e-28   1.225e-28   -27.206   -27.912    -0.706     (0)  \
H(0)          1.207e-25\
   H2              6.033e-26   6.038e-26   -25.219   -25.219     0.000     28.61\
K             2.659e-05\
   K+              2.653e-05   2.484e-05    -4.576    -4.605    -0.029      8.95\
   KHCO3           6.581e-08   6.581e-08    -7.182    -7.182     0.000     41.01\
   KSO4-           2.784e-10   2.617e-10    -9.555    -9.582    -0.027     13.95\
Mg            1.277e-05\
   Mg+2            1.203e-05   9.352e-06    -4.920    -5.029    -0.109    -21.64\
   MgHCO3+         7.141e-07   6.691e-07    -6.146    -6.175    -0.028      5.43\
   MgCO3           2.588e-08   2.590e-08    -7.587    -7.587     0.000    -17.09\
   MgSO4           1.602e-09   1.605e-09    -8.795    -8.795     0.001     -8.80\
   MgOH+           3.155e-10   2.964e-10    -9.501    -9.528    -0.027     (0)  \
   Mg(SO4)2-2      4.953e-15   3.870e-15   -14.305   -14.412    -0.107      1.11\
Mn(2)         7.830e-09\
   Mn+2            4.766e-09   3.706e-09    -8.322    -8.431    -0.109    -20.47\
   MnHCO3+         2.176e-09   2.041e-09    -8.662    -8.690    -0.028     (0)  \
   MnCO3           8.871e-10   8.879e-10    -9.052    -9.052     0.000     (0)  \
   MnOH+           9.065e-13   8.503e-13   -12.043   -12.070    -0.028     (0)  \
   MnSO4           4.386e-13   4.390e-13   -12.358   -12.358     0.000     23.69\
   Mn(OH)3-        8.251e-23   7.740e-23   -22.083   -22.111    -0.028     (0)  \
Mn(3)         1.356e-30\
   Mn+3            1.356e-30   7.925e-31   -29.868   -30.101    -0.233     (0)  \
Na            1.978e-04\
   Na+             1.969e-04   1.846e-04    -3.706    -3.734    -0.028     -1.57\
   NaHCO3          9.232e-07   9.248e-07    -6.035    -6.034     0.001     31.75\
   NaSO4-          2.190e-09   2.056e-09    -8.659    -8.687    -0.028    -18.56\
   NaOH            1.687e-21   1.689e-21   -20.773   -20.772     0.000     (0)  \
O(0)          0.000e+00\
   O2              0.000e+00   0.000e+00   -42.756   -42.756     0.000     30.20\
S(6)          9.154e-07\
   SO4-2           9.031e-07   6.989e-07    -6.044    -6.156    -0.111     16.25\
   CaSO4           8.278e-09   8.285e-09    -8.082    -8.082     0.000      7.40\
   NaSO4-          2.190e-09   2.056e-09    -8.659    -8.687    -0.028    -18.56\
   MgSO4           1.602e-09   1.605e-09    -8.795    -8.795     0.001     -8.80\
   KSO4-           2.784e-10   2.617e-10    -9.555    -9.582    -0.027     13.95\
   HSO4-           6.266e-12   5.871e-12   -11.203   -11.231    -0.028     40.13\
   FeSO4           3.917e-12   3.921e-12   -11.407   -11.407     0.000     21.68\
   MnSO4           4.386e-13   4.390e-13   -12.358   -12.358     0.000     23.69\
   CaHSO4+         5.117e-15   4.795e-15   -14.291   -14.319    -0.028     (0)  \
   Mg(SO4)2-2      4.953e-15   3.870e-15   -14.305   -14.412    -0.107      1.11\
   FeHSO4+         2.489e-18   2.332e-18   -17.604   -17.632    -0.028     (0)  \
   FeSO4+          2.123e-19   1.991e-19   -18.673   -18.701    -0.028     (0)  \
   Fe(SO4)2-       3.218e-24   3.015e-24   -23.492   -23.521    -0.028     (0)  \
   FeHSO4+2        6.320e-26   4.872e-26   -25.199   -25.312    -0.113     (0)  \
Si            1.905e-04\
   H4SiO4          1.902e-04   1.903e-04    -3.721    -3.721     0.000     52.30\
   H3SiO4-         3.006e-07   2.817e-07    -6.522    -6.550    -0.028     27.94\
   H2SiO4-2        2.296e-13   1.781e-13   -12.639   -12.749    -0.110     (0)  \
\
------------------------------Saturation indices-------------------------------\
\
  Phase               SI** log IAP   log K(295 K,   1 atm)\
\
  Anhydrite        -6.07    -10.32   -4.25  CaSO4\
  Aragonite        -1.37     -9.69   -8.32  CaCO3\
  Arcanite        -13.45    -15.37   -1.91  K2SO4\
  Calcite          -1.23     -9.69   -8.46  CaCO3\
  Chalcedony       -0.14     -3.72   -3.58  SiO2\
  Chrysotile      -12.80     19.71   32.51  Mg3Si2O5(OH)4\
  CO2(g)           -1.44     -2.88   -1.44  CO2\
  Dolomite         -3.20    -20.24  -17.04  CaMg(CO3)2\
  Epsomite         -9.43    -11.19   -1.75  MgSO4:7H2O\
  Fe(OH)3(a)       -0.33      4.56    4.89  Fe(OH)3\
  Goethite          5.47      4.56   -0.91  FeOOH\
  Gypsum           -5.74    -10.32   -4.58  CaSO4:2H2O\
  H2(g)           -22.12    -25.22   -3.09  H2\
  H2O(g)           -1.57     -0.00    1.57  H2O\
  Hausmannite     -22.63     39.03   61.65  Mn3O4\
  Hematite         12.93      9.12   -3.82  Fe2O3\
  Hexahydrite      -9.62    -11.19   -1.57  MgSO4:6H2O\
  Jarosite-K      -15.34    -24.36   -9.02  KFe3(SO4)2(OH)6\
  Kieserite       -10.01    -11.18   -1.18  MgSO4:H2O\
  Manganite        -8.65     16.69   25.34  MnOOH\
  Melanterite     -11.40    -13.64   -2.24  FeSO4:7H2O\
  Mirabilite      -12.27    -13.62   -1.35  Na2SO4:10H2O\
  O2(g)           -39.88    -42.76   -2.87  O2\
  Pyrochroite      -9.55      5.65   15.20  Mn(OH)2\
  Pyrolusite      -14.05     27.73   41.78  MnO2:H2O\
  Quartz            0.30     -3.72   -4.02  SiO2\
  Rhodochrosite    -2.83    -13.95  -11.12  MnCO3\
  Sepiolite        -8.89      6.94   15.83  Mg2Si3O7.5OH:3H2O\
  Sepiolite(d)    -11.72      6.94   18.66  Mg2Si3O7.5OH:3H2O\
  Siderite         -2.13    -13.00  -10.87  FeCO3\
  SiO2(a)          -0.99     -3.72   -2.73  SiO2\
  Talc             -9.42     12.27   21.69  Mg3Si4O10(OH)2\
  Thenardite      -13.33    -13.62   -0.29  Na2SO4\
\
**For a gas, SI = log10(fugacity). Fugacity = pressure * phi / 1 atm.\
  For ideal gases, phi = 1.\
\
-----------------------------------------\
Beginning of batch-reaction calculations.\
-----------------------------------------\
\
Reaction step 1.\
\
WARNING: Element Al is contained in Albite (which has 0.0 mass),	\
but is not in solution or other phases.\
WARNING: Element Al is contained in Anorthite (which has 0.0 mass),	\
but is not in solution or other phases.\
WARNING: Element Al is contained in Gibbsite (which has 0.0 mass),	\
but is not in solution or other phases.\
WARNING: Element Cl is contained in Halite (which has 0.0 mass),	\
but is not in solution or other phases.\
WARNING: Element Al is contained in Illite (which has 0.0 mass),	\
but is not in solution or other phases.\
WARNING: Element Al is contained in Kaolinite (which has 0.0 mass),	\
but is not in solution or other phases.\
Using solution 70.	NEP22-10\
Using pure phase assemblage 1.	\
\
-------------------------------Phase assemblage--------------------------------\
\
                                                      Moles in assemblage\
Phase               SI  log IAP  log K(T, P)   Initial       Final       Delta\
\
Albite               Element not present.    0.000e+00           0   0.000e+00\
Anhydrite        -7.20   -11.35     -4.15    0.000e+00           0   0.000e+00\
Anorthite            Element not present.    0.000e+00           0   0.000e+00\
Calcite          -2.69   -11.11     -8.41    0.000e+00           0   0.000e+00\
Dolomite         -5.85   -22.76    -16.91    0.000e+00           0   0.000e+00\
Gibbsite             Element not present.    0.000e+00           0   0.000e+00\
Goethite         -0.97    -1.52     -0.55    0.000e+00           0   0.000e+00\
Gypsum           -6.75   -11.35     -4.59    0.000e+00           0   0.000e+00\
Halite               Element not present.    0.000e+00           0   0.000e+00\
Hematite         -0.00    -3.04     -3.04    0.000e+00   4.316e-11   4.316e-11\
Illite               Element not present.    0.000e+00           0   0.000e+00\
Kaolinite            Element not present.    0.000e+00           0   0.000e+00\
Pyrite          -34.39   -53.22    -18.83    0.000e+00           0   0.000e+00\
Quartz            0.00    -4.17     -4.17    0.000e+00   2.728e-05   2.728e-05\
Siderite         -3.33   -14.14    -10.81    0.000e+00           0   0.000e+00\
\
-----------------------------Solution composition------------------------------\
\
	Elements           Molality       Moles\
\
	C                 5.314e-03   5.314e-03\
	Ca                3.214e-05   3.214e-05\
	Fe                3.709e-08   3.709e-08\
	K                 8.534e-06   8.534e-06\
	Mg                9.359e-06   9.359e-06\
	Mn                2.785e-08   2.785e-08\
	Na                7.920e-05   7.920e-05\
	S                 1.992e-07   1.992e-07\
	Si                6.795e-05   6.795e-05\
\
----------------------------Description of solution----------------------------\
\
                                       pH  =   6.480      Charge balance\
                                       pe  =  -0.039      Adjusted to redox equilibrium\
      Specific Conductance (\'b5S/cm,  13\'b0C)  = 94\
                          Density (g/cm\'b3)  =   0.99954\
                               Volume (L)  =   1.00075\
                        Viscosity (mPa s)  =   1.20876\
                        Activity of water  =   1.000\
                 Ionic strength (mol/kgw)  =   1.549e-03\
                       Mass of water (kg)  =   1.000e+00\
                 Total alkalinity (eq/kg)  =   2.844e-03\
                       Total CO2 (mol/kg)  =   5.314e-03\
                         Temperature (\'b0C)  =  12.80\
                  Electrical balance (eq)  =  -2.673e-03\
 Percent error, 100*(Cat-|An|)/(Cat+|An|)  = -88.68\
                               Iterations  =   8\
                                  Total H  = 1.110157e+02\
                                  Total O  = 5.552001e+01\
\
----------------------------Distribution of species----------------------------\
\
                                               Log       Log       Log    mole V\
   Species          Molality    Activity  Molality  Activity     Gamma   cm\'b3/mol\
\
   H+              3.449e-07   3.311e-07    -6.462    -6.480    -0.018      0.00\
   OH-             1.186e-08   1.135e-08    -7.926    -7.945    -0.019     -4.78\
   H2O             5.551e+01   9.999e-01     1.744    -0.000     0.000     18.03\
C(-4)         9.039e-29\
   CH4             9.039e-29   9.042e-29   -28.044   -28.044     0.000     34.29\
C(4)          5.314e-03\
   HCO3-           2.843e-03   2.725e-03    -2.546    -2.565    -0.018     23.28\
   CO2             2.470e-03   2.470e-03    -2.607    -2.607     0.000     33.81\
   CO3-2           3.429e-07   2.895e-07    -6.465    -6.538    -0.074     -5.63\
   MgHCO3+         2.466e-07   2.362e-07    -6.608    -6.627    -0.019      5.05\
   CaHCO3+         1.684e-07   1.615e-07    -6.774    -6.792    -0.018    122.07\
   NaHCO3          1.252e-07   1.253e-07    -6.902    -6.902     0.000     31.83\
   (CO2)2          7.268e-08   7.271e-08    -7.139    -7.138     0.000     67.63\
   CaCO3           1.090e-08   1.091e-08    -7.962    -7.962     0.000    -14.64\
   KHCO3           8.083e-09   8.083e-09    -8.092    -8.092     0.000     40.94\
   FeHCO3+         7.152e-09   6.851e-09    -8.146    -8.164    -0.019     (0)  \
   MnHCO3+         4.836e-09   4.634e-09    -8.316    -8.334    -0.018     (0)  \
   MgCO3           1.762e-09   1.763e-09    -8.754    -8.754     0.000    -17.08\
   MnCO3           4.386e-10   4.387e-10    -9.358    -9.358     0.000     (0)  \
   FeCO3           1.745e-10   1.746e-10    -9.758    -9.758     0.000     (0)  \
Ca            3.214e-05\
   Ca+2            3.196e-05   2.697e-05    -4.495    -4.569    -0.074    -18.33\
   CaHCO3+         1.684e-07   1.615e-07    -6.774    -6.792    -0.018    122.07\
   CaCO3           1.090e-08   1.091e-08    -7.962    -7.962     0.000    -14.64\
   CaSO4           7.277e-10   7.279e-10    -9.138    -9.138     0.000      6.95\
   CaOH+           1.411e-11   1.352e-11   -10.850   -10.869    -0.019     (0)  \
   CaHSO4+         1.414e-15   1.354e-15   -14.850   -14.868    -0.019     (0)  \
Fe(2)         3.709e-08\
   Fe+2            2.975e-08   2.514e-08    -7.527    -7.600    -0.073    -23.03\
   FeHCO3+         7.152e-09   6.851e-09    -8.146    -8.164    -0.019     (0)  \
   FeCO3           1.745e-10   1.746e-10    -9.758    -9.758     0.000     (0)  \
   FeOH+           9.684e-12   9.281e-12   -11.014   -11.032    -0.018     (0)  \
   FeSO4           5.914e-13   5.916e-13   -12.228   -12.228     0.000     34.41\
   Fe(OH)2         7.887e-17   7.889e-17   -16.103   -16.103     0.000     (0)  \
   FeHSO4+         1.318e-18   1.263e-18   -17.880   -17.899    -0.019     (0)  \
   Fe(OH)3-        8.151e-21   7.812e-21   -20.089   -20.107    -0.018     (0)  \
   Fe(HS)2         0.000e+00   0.000e+00   -57.153   -57.153     0.000     (0)  \
   Fe(HS)3-        0.000e+00   0.000e+00   -84.349   -84.368    -0.019     (0)  \
Fe(3)         7.888e-15\
   Fe(OH)2+        6.485e-15   6.216e-15   -14.188   -14.206    -0.018     (0)  \
   Fe(OH)3         1.388e-15   1.389e-15   -14.857   -14.857     0.000     (0)  \
   FeOH+2          1.194e-17   1.007e-17   -16.923   -16.997    -0.074     (0)  \
   Fe(OH)4-        2.393e-18   2.294e-18   -17.621   -17.639    -0.018     (0)  \
   Fe+3            1.574e-21   1.092e-21   -20.803   -20.962    -0.159     (0)  \
   FeSO4+          1.575e-24   1.509e-24   -23.803   -23.821    -0.018     (0)  \
   Fe(SO4)2-       5.475e-30   5.244e-30   -29.262   -29.280    -0.019     (0)  \
   FeHSO4+2        1.637e-30   1.378e-30   -29.786   -29.861    -0.075     (0)  \
   Fe2(OH)2+4      9.197e-33   4.618e-33   -32.036   -32.336    -0.299     (0)  \
   Fe3(OH)4+5      0.000e+00   0.000e+00   -43.245   -43.712    -0.467     (0)  \
H(0)          2.111e-16\
   H2              1.056e-16   1.056e-16   -15.976   -15.976     0.000     28.62\
K             8.534e-06\
   K+              8.526e-06   8.165e-06    -5.069    -5.088    -0.019      8.54\
   KHCO3           8.083e-09   8.083e-09    -8.092    -8.092     0.000     40.94\
   KSO4-           2.091e-11   2.005e-11   -10.680   -10.698    -0.018     12.80\
Mg            9.359e-06\
   Mg+2            9.110e-06   7.697e-06    -5.040    -5.114    -0.073    -21.33\
   MgHCO3+         2.466e-07   2.362e-07    -6.608    -6.627    -0.019      5.05\
   MgCO3           1.762e-09   1.763e-09    -8.754    -8.754     0.000    -17.08\
   MgSO4           2.452e-10   2.454e-10    -9.610    -9.610     0.000    -12.99\
   MgOH+           2.790e-11   2.676e-11   -10.554   -10.573    -0.018     (0)  \
   Mg(SO4)2-2      2.019e-16   1.710e-16   -15.695   -15.767    -0.072     -4.99\
Mn(2)         2.785e-08\
   Mn+2            2.258e-08   1.908e-08    -7.646    -7.719    -0.073    -21.18\
   MnHCO3+         4.836e-09   4.634e-09    -8.316    -8.334    -0.018     (0)  \
   MnCO3           4.386e-10   4.387e-10    -9.358    -9.358     0.000     (0)  \
   MnOH+           5.480e-13   5.251e-13   -12.261   -12.280    -0.018     (0)  \
   MnSO4           4.443e-13   4.445e-13   -12.352   -12.352     0.000     29.06\
   Mn(OH)3-        8.690e-24   8.327e-24   -23.061   -23.079    -0.018     (0)  \
Mn(3)         1.211e-34\
   Mn+3            1.211e-34   8.403e-35   -33.917   -34.076    -0.159     (0)  \
Na            7.920e-05\
   Na+             7.907e-05   7.576e-05    -4.102    -4.121    -0.019     -2.25\
   NaHCO3          1.252e-07   1.253e-07    -6.902    -6.902     0.000     31.83\
   NaSO4-          1.900e-10   1.821e-10    -9.721    -9.740    -0.018    -22.88\
   NaOH            8.598e-23   8.601e-23   -22.066   -22.065     0.000     (0)  \
O(0)          0.000e+00\
   O2              0.000e+00   0.000e+00   -64.533   -64.533     0.000     29.27\
S(-2)         3.028e-29\
   H2S             2.443e-29   2.444e-29   -28.612   -28.612     0.000     32.68\
   HS-             5.849e-30   5.601e-30   -29.233   -29.252    -0.019     19.86\
   S-2             1.013e-36   8.547e-37   -35.994   -36.068    -0.074     (0)  \
   Fe(HS)2         0.000e+00   0.000e+00   -57.153   -57.153     0.000     (0)  \
   (H2S)2          0.000e+00   0.000e+00   -58.648   -58.648     0.000     30.55\
   Fe(HS)3-        0.000e+00   0.000e+00   -84.349   -84.368    -0.019     (0)  \
S(6)          1.992e-07\
   SO4-2           1.980e-07   1.670e-07    -6.703    -6.777    -0.074     13.80\
   CaSO4           7.277e-10   7.279e-10    -9.138    -9.138     0.000      6.95\
   MgSO4           2.452e-10   2.454e-10    -9.610    -9.610     0.000    -12.99\
   NaSO4-          1.900e-10   1.821e-10    -9.721    -9.740    -0.018    -22.88\
   KSO4-           2.091e-11   2.005e-11   -10.680   -10.698    -0.018     12.80\
   HSO4-           4.361e-12   4.177e-12   -11.360   -11.379    -0.019     39.23\
   FeSO4           5.914e-13   5.916e-13   -12.228   -12.228     0.000     34.41\
   MnSO4           4.443e-13   4.445e-13   -12.352   -12.352     0.000     29.06\
   CaHSO4+         1.414e-15   1.354e-15   -14.850   -14.868    -0.019     (0)  \
   Mg(SO4)2-2      2.019e-16   1.710e-16   -15.695   -15.767    -0.072     -4.99\
   FeHSO4+         1.318e-18   1.263e-18   -17.880   -17.899    -0.019     (0)  \
   FeSO4+          1.575e-24   1.509e-24   -23.803   -23.821    -0.018     (0)  \
   Fe(SO4)2-       5.475e-30   5.244e-30   -29.262   -29.280    -0.019     (0)  \
   FeHSO4+2        1.637e-30   1.378e-30   -29.786   -29.861    -0.075     (0)  \
Si            6.795e-05\
   H4SiO4          6.793e-05   6.795e-05    -4.168    -4.168     0.000     53.31\
   H3SiO4-         1.994e-08   1.910e-08    -7.700    -7.719    -0.019     27.55\
   H2SiO4-2        1.977e-15   1.669e-15   -14.704   -14.778    -0.074     (0)  \
\
------------------------------Saturation indices-------------------------------\
\
  Phase               SI** log IAP   log K(285 K,   1 atm)\
\
  Anhydrite        -7.20    -11.35   -4.15  CaSO4\
  Aragonite        -2.84    -11.11   -8.27  CaCO3\
  Arcanite        -14.89    -16.95   -2.06  K2SO4\
  Calcite          -2.69    -11.11   -8.41  CaCO3\
  CH4(g)          -25.37    -28.04   -2.67  CH4\
  Chalcedony       -0.47     -4.17   -3.70  SiO2\
  Chrysotile      -18.57     15.20   33.78  Mg3Si2O5(OH)4\
  CO2(g)           -1.30     -2.61   -1.31  CO2\
  Dolomite         -5.85    -22.76  -16.91  CaMg(CO3)2\
  Epsomite        -10.08    -11.89   -1.81  MgSO4:7H2O\
  Fe(OH)3(a)       -6.41     -1.52    4.89  Fe(OH)3\
  FeS(ppt)        -26.46    -30.37   -3.92  FeS\
  Goethite         -0.97     -1.52   -0.55  FeOOH\
  Gypsum           -6.75    -11.35   -4.59  CaSO4:2H2O\
  H2(g)           -12.91    -15.98   -3.07  H2\
  H2O(g)           -1.83     -0.00    1.83  H2O\
  H2S(g)          -27.77    -35.73   -7.97  H2S\
  Hausmannite     -35.57     28.60   64.18  Mn3O4\
  Hematite         -0.00     -3.04   -3.04  Fe2O3\
  Hexahydrite     -10.31    -11.89   -1.58  MgSO4:6H2O\
  Jarosite-K      -34.42    -42.65   -8.23  KFe3(SO4)2(OH)6\
  Kieserite       -10.62    -11.89   -1.27  MgSO4:H2O\
  Mackinawite     -25.72    -30.37   -4.65  FeS\
  Manganite       -13.66     11.68   25.34  MnOOH\
  Melanterite     -12.01    -14.38   -2.37  FeSO4:7H2O\
  Mirabilite      -13.20    -15.02   -1.82  Na2SO4:10H2O\
  O2(g)           -61.74    -64.53   -2.79  O2\
  Pyrite          -34.39    -53.22  -18.83  FeS2\
  Pyrochroite      -9.96      5.24   15.20  Mn(OH)2\
  Pyrolusite      -25.29     18.12   43.42  MnO2:H2O\
  Quartz            0.00     -4.17   -4.17  SiO2\
  Rhodochrosite    -3.17    -14.26  -11.09  MnCO3\
  Sepiolite       -12.91      3.19   16.09  Mg2Si3O7.5OH:3H2O\
  Sepiolite(d)    -15.47      3.19   18.66  Mg2Si3O7.5OH:3H2O\
  Siderite         -3.33    -14.14  -10.81  FeCO3\
  SiO2(a)          -1.35     -4.17   -2.82  SiO2\
  Sulfur          -20.91    -15.73    5.18  S\
  Talc            -15.98      6.87   22.85  Mg3Si4O10(OH)2\
  Thenardite      -14.78    -15.02   -0.24  Na2SO4\
\
**For a gas, SI = log10(fugacity). Fugacity = pressure * phi / 1 atm.\
  For ideal gases, phi = 1.\
\
------------------\
End of simulation.\
------------------\
\
------------------------------------\
Reading input data for simulation 2.\
------------------------------------\
\
----------------------------------\
End of Run after 0.013307 Seconds.\
----------------------------------\
\
}