   Input file: /Users/enrico/Desktop/Part III Project/Code/Nepal-1/Code/phreeqc_input.pqi
  Output file: /Users/enrico/Desktop/Part III Project/Code/Nepal-1/Code/outputFile_3
Database file: /Applications/MacPHREEQC.app/Contents/Resources/database/phreeqc.dat

------------------
Reading data base.
------------------

	SOLUTION_MASTER_SPECIES
	SOLUTION_SPECIES
	PHASES
	EXCHANGE_MASTER_SPECIES
	EXCHANGE_SPECIES
	SURFACE_MASTER_SPECIES
	SURFACE_SPECIES
	MEAN_GAMMAS
	RATES
	END
------------------------------------
Reading input data for simulation 1.
------------------------------------

	TITLE NEP22-10 -- Geochemical Solution
	SOLUTION 70 NEP22-10
	    units ppm
	    pH 6.48
	    temp 12.8
	    Ca 1.28806
	    Mg 0.2275
	    Na 1.82043
	    K 0.33366
	    Fe 0.00207573704015558
	    Mn 0.00153
	    Si 5.72065
	    Cl 0.6071695609496665
	    Alkalinity 142.29 as CaCO3
	    S(6) 0.01913
	TITLE NEP22-11 -- Geochemical Solution
	SOLUTION 71 NEP22-11
	    units ppm
	    pH 6.59
	    temp 13.3
	    Ca 1.51341
	    Mg 0.25994
	    Na 2.07327
	    K 0.40248
	    Fe 0.00289299969973289
	    Mn 0.00046
	    Si 6.30806
	    Cl 0.5588755776667712
	    Alkalinity 173.81 as CaCO3
	    S(6) 0.04954
	TITLE NEP22-12 -- Geochemical Solution
	SOLUTION 72 NEP22-12
	    units ppm
	    pH 6.77
	    temp 13.4
	    Ca 1.04729
	    Mg 0.15207
	    Na 1.20067
	    K 0.29977
	    Fe 0.0012951786448244
	    Mn 0.00013
	    Si 5.02449
	    Cl 0.1023952546097397
	    Alkalinity 173.4 as CaCO3
	    S(6) 0.07242
	TITLE NEP22-13 -- Geochemical Solution
	SOLUTION 73 NEP22-13
	    units ppm
	    pH 6.76
	    temp 15.0
	    Ca 1.5767
	    Mg 0.26504
	    Na 1.68057
	    K 0.38599
	    Fe 0.00211428159034109
	    Mn 0.00022
	    Si 5.2939
	    Cl 0.32009463582261244
	    Alkalinity 157.34 as CaCO3
	    S(6) 0.1528
	TITLE NEP22-15 -- Geochemical Solution
	SOLUTION 75 NEP22-15
	    units ppm
	    pH 7.29
	    temp 14.6
	    Ca 3.27677
	    Mg 0.39015
	    Na 2.51746
	    K 0.45937
	    Fe 0.00277420402916498
	    Mn 0.00022
	    Si 6.78954
	    Cl 0.1763958347848664
	    Alkalinity 250.48 as CaCO3
	    S(6) 0.25737
	TITLE NEP22-16 -- Geochemical Solution
	SOLUTION 76 NEP22-16
	    units ppm
	    pH 7.14
	    temp 11.7
	    Ca 1.37548
	    Mg 0.2295
	    Na 1.03096
	    K 0.31253
	    Fe 0.0019076076683123499
	    Mn 3e-05
	    Si 5.07371
	    Cl 0.03710695204244041
	    Alkalinity 170.85 as CaCO3
	    S(6) 0.11358
	TITLE NEP22-19 -- Geochemical Solution
	SOLUTION 79 NEP22-19
	    units ppm
	    pH 6.07
	    temp 15.1
	    Ca 1.59643
	    Mg 0.2547
	    Na 1.60034
	    K 0.40059
	    Fe 0.00161899510385592
	    Mn 0.00104
	    Si 5.33169
	    Cl 0.33472265748513746
	    Alkalinity 183.6 as CaCO3
	    S(6) 0.14061
	TITLE NEP22-20 -- Geochemical Solution
	SOLUTION 81 NEP22-20
	    units ppm
	    pH 7.14
	    temp 11.4
	    Ca 1.10332
	    Mg 0.18693
	    Na 1.19823
	    K 0.29987
	    Fe 0.0029765152283134
	    Mn 0.00055
	    Si 4.5581
	    Cl 0.24362019904279397
	    Alkalinity 210.4 as CaCO3
	    S(6) 0.14612
	TITLE NEP22-42 -- Geochemical Solution
	SOLUTION 101 NEP22-42
	    units ppm
	    pH 6.24
	    temp 21.9
	    Ca 2.75517
	    Mg 0.35685
	    Na 3.33846
	    K 0.73466
	    Fe 0.00264421447920189
	    Mn 0.00013
	    Si 8.05905
	    Cl 0.9659863276127809
	    Alkalinity 268.87 as CaCO3
	    S(6) 0.18571
	TITLE NEP22-45 -- Geochemical Solution
	SOLUTION 103 NEP22-45
	    units ppm
	    pH 7.57
	    temp 21.6
	    Ca 3.21859
	    Mg 0.42603
	    Na 4.54859
	    K 0.63925
	    Fe 0.0029707221735366697
	    Mn 0.00016
	    Si 9.31031
	    Cl 0.8474563285532029
	    Alkalinity 354.28 as CaCO3
	    S(6) 0.13991
	TITLE NEP22-53 -- Geochemical Solution
	SOLUTION 112 NEP22-53
	    units ppm
	    pH 6.33
	    temp 16.7
	    Ca 3.14942
	    Mg 0.52595
	    Na 3.32537
	    K 0.84715
	    Fe 0.00329276780612551
	    Mn 0.00077
	    Si 7.99342
	    Cl 0.6984096035766696
	    Alkalinity 258.06 as CaCO3
	    S(6) 0.09561
	TITLE NEP22-54 -- Geochemical Solution
	SOLUTION 113 NEP22-54
	    units ppm
	    pH 6.19
	    temp 17.0
	    Ca 2.92386
	    Mg 0.4871
	    Na 3.17092
	    K 0.7611
	    Fe 0.00285353637964085
	    Mn 7e-05
	    Si 7.72055
	    Cl 0.7228797361013449
	    Alkalinity 239.99 as CaCO3
	    S(6) 0.08256
	TITLE NEP22-55 -- Geochemical Solution
	SOLUTION 114 NEP22-55
	    units ppm
	    pH 6.69
	    temp 17.1
	    Ca 2.88305
	    Mg 0.47789
	    Na 3.06539
	    K 0.76044
	    Fe 0.00268223311222332
	    Mn 0.00016
	    Si 7.6455
	    Cl 0.6936872972999779
	    Alkalinity 268.311 as CaCO3
	    S(6) 0.06982
	TITLE NEP22-56 -- Geochemical Solution
	SOLUTION 115 NEP22-56
	    units ppm
	    pH 6.86
	    temp 19.1
	    Ca 4.24774
	    Mg 0.37798
	    Na 4.75624
	    K 0.87563
	    Fe 0.00434287808053633
	    Mn 0.00024
	    Si 10.92715
	    Cl 0.8239800204796082
	    Alkalinity 387.09 as CaCO3
	    S(6) 0.11309
	TITLE NEP22-57 -- Geochemical Solution
	SOLUTION 116 NEP22-57
	    units ppm
	    pH 6.85
	    temp 19.3
	    Ca 6.279
	    Mg 0.84919
	    Na 6.38947
	    K 1.40672
	    Fe 0.00506086331311566
	    Mn 0.00029
	    Si 12.98301
	    Cl 1.6452320120533575
	    Alkalinity 532.75 as CaCO3
	    S(6) 0.42366
	TITLE NEP22-58 -- Geochemical Solution
	SOLUTION 117 NEP22-58
	    units ppm
	    pH 7.34
	    temp 16.8
	    Ca 3.21539
	    Mg 0.31175
	    Na 4.16388
	    K 0.69786
	    Fe 0.00339374466104222
	    Mn 0.00022
	    Si 10.1457
	    Cl 0.26825043182711567
	    Alkalinity 350.77 as CaCO3
	    S(6) 0.09154
	TITLE NEP22-59 -- Geochemical Solution
	SOLUTION 118 NEP22-59
	    units ppm
	    pH 7.48
	    temp 20.3
	    Ca 2.50621
	    Mg 0.34816
	    Na 3.09361
	    K 0.74341
	    Fe 0.00196879939609519
	    Mn 0.0002
	    Si 7.62627
	    Cl 0.5287285530437243
	    Alkalinity 250.41 as CaCO3
	    S(6) 0.12357
	TITLE NEP22-60 -- Geochemical Solution
	SOLUTION 120 NEP22-60
	    units ppm
	    pH 7.04
	    temp 21.3
	    Ca 3.9896
	    Mg 0.64416
	    Na 3.91315
	    K 1.08304
	    Fe 0.00425432702478449
	    Mn 0.00039
	    Si 8.06893
	    Cl 0.803373593090408
	    Alkalinity 239.99 as CaCO3
	    S(6) 0.29162
	TITLE NEP22-9 -- Geochemical Solution
	SOLUTION 151 NEP22-9
	    units ppm
	    pH 6.32
	    temp 12.8
	    Ca 0.5869
	    Mg 0.11546
	    Na 0.40614
	    K 0.22848
	    Fe 0.00061354310442368
	    Mn 0.00194
	    Si 2.84147
	    Cl 0.060554810295605555
	    Alkalinity 309.4 as CaCO3
	    S(6) 0.06822
	TITLE Nep23-113 -- Geochemical Solution
	SOLUTION 174 Nep23-113
	    units ppm
	    pH 7.24
	    temp 20.8
	    Ca 2.65632
	    Mg 0.3597
	    Na 2.93704
	    K 0.86468
	    Fe 0.0022390648281323798
	    Mn 0.00035
	    Si 7.00702
	    Cl nan
	    Alkalinity 262.4420228866632 as CaCO3
	    S(6) 0.08755
	TITLE Nep23-114 -- Geochemical Solution
	SOLUTION 175 Nep23-114
	    units ppm
	    pH 6.31
	    temp 21.8
	    Ca 2.74152
	    Mg 0.35262
	    Na 3.3129
	    K 0.77156
	    Fe 0.0030566291175714
	    Mn 0.00217
	    Si 7.76619
	    Cl nan
	    Alkalinity 234.66926007545723 as CaCO3
	    S(6) 0.08537
	TITLE Nep23-115 -- Geochemical Solution
	SOLUTION 176 Nep23-115
	    units ppm
	    pH 7.2
	    temp 22.3
	    Ca 2.71472
	    Mg 0.36384
	    Na 3.03721
	    K 0.91338
	    Fe 0.00139233713591917
	    Mn 0.0003
	    Si 7.24647
	    Cl nan
	    Alkalinity 245.71045199601176 as CaCO3
	    S(6) 0.06827
	TITLE Nep23-116 -- Geochemical Solution
	SOLUTION 177 Nep23-116
	    units ppm
	    pH 7.45
	    temp 24.0
	    Ca 6.25894
	    Mg 0.76467
	    Na 4.16629
	    K 2.24786
	    Fe 0.00451857068860511
	    Mn 0.00154
	    Si 7.15672
	    Cl nan
	    Alkalinity 353.53964868689434 as CaCO3
	    S(6) 0.44161
	TITLE Nep23-117 -- Geochemical Solution
	SOLUTION 178 Nep23-117
	    units ppm
	    pH 7.26
	    temp 23.8
	    Ca 3.15758
	    Mg 0.44703
	    Na 4.42248
	    K 0.73834
	    Fe 0.00184426895265983
	    Mn 9e-05
	    Si 9.21913
	    Cl nan
	    Alkalinity 310.4541322091138 as CaCO3
	    S(6) 0.09064
	TITLE Nep23-118 -- Geochemical Solution
	SOLUTION 179 Nep23-118
	    units ppm
	    pH 6.72
	    temp 21.0
	    Ca 4.33345
	    Mg 0.37147
	    Na 4.47039
	    K 0.99074
	    Fe 0.0024316217427458498
	    Mn 0.00015
	    Si 10.78037
	    Cl nan
	    Alkalinity 351.11750182885305 as CaCO3
	    S(6) 0.02323
	TITLE Nep23-119 -- Geochemical Solution
	SOLUTION 180 Nep23-119
	    units ppm
	    pH 6.32
	    temp 19.1
	    Ca 3.88112
	    Mg 0.33191
	    Na 4.03925
	    K 0.89306
	    Fe 0.0025737246789411202
	    Mn 0.00015
	    Si 9.64935
	    Cl nan
	    Alkalinity 261.4178738452527 as CaCO3
	    S(6) -0.00102
	TITLE Nep23-120 -- Geochemical Solution
	SOLUTION 182 Nep23-120
	    units ppm
	    pH 6.65
	    temp 16.3
	    Ca 1.46658
	    Mg 0.23994
	    Na 1.72364
	    K 0.40121
	    Fe 0.0011215520123002102
	    Mn 0.00017
	    Si 5.43042
	    Cl nan
	    Alkalinity 119.40486626977888 as CaCO3
	    S(6) 0.03927
	TITLE Nep23-121 -- Geochemical Solution
	SOLUTION 183 Nep23-121
	    units ppm
	    pH 6.01
	    temp 15.0
	    Ca 1.46933
	    Mg 0.2519
	    Na 1.82611
	    K 0.41416
	    Fe 0.0011417891810916
	    Mn 0.00092
	    Si 5.55301
	    Cl nan
	    Alkalinity 136.34212213914284 as CaCO3
	    S(6) -0.00169
	TITLE Nep23-122 -- Geochemical Solution
	SOLUTION 184 Nep23-122
	    units ppm
	    pH 6.0
	    temp 14.6
	    Ca 0.57089
	    Mg 0.11622
	    Na 0.49997
	    K 0.26008
	    Fe 0.0018204677731309999
	    Mn 0.00165
	    Si 2.93287
	    Cl nan
	    Alkalinity 93.05246938873613 as CaCO3
	    S(6) 0.06052
	TITLE NEP23-15 -- Geochemical Solution
	SOLUTION 204 NEP23-15
	    units ppm
	    pH 7.15
	    temp 20.4
	    Ca 1.52853
	    Mg 0.21962
	    Na 2.88376
	    K 0.596
	    Fe 0.00199
	    Mn -0.00016
	    Si 7.7523
	    Cl nan
	    Alkalinity 186.0 as CaCO3
	    S(6) 0.11685
	TITLE NEP23-16 -- Geochemical Solution
	SOLUTION 205 NEP23-16
	    units ppm
	    pH 6.35
	    temp 19.7
	    Ca 2.60082
	    Mg 0.3831
	    Na 3.80301
	    K 1.84706
	    Fe 0.00369
	    Mn 0.00761
	    Si 7.99097
	    Cl nan
	    Alkalinity 193.0 as CaCO3
	    S(6) 0.14502
	TITLE NEP23-17 -- Geochemical Solution
	SOLUTION 206 NEP23-17
	    units ppm
	    pH 7.51
	    temp 20.9
	    Ca 3.13595
	    Mg 0.46281
	    Na 4.81737
	    K 0.82121
	    Fe 0.00375
	    Mn -3e-05
	    Si 10.47364
	    Cl nan
	    Alkalinity 302.0 as CaCO3
	    S(6) 0.14283
	TITLE NEP23-18 -- Geochemical Solution
	SOLUTION 207 NEP23-18
	    units ppm
	    pH 6.07
	    temp 21.3
	    Ca 2.99145
	    Mg 0.37713
	    Na 4.50998
	    K 0.75902
	    Fe 0.00323
	    Mn 0.0001
	    Si 10.11602
	    Cl nan
	    Alkalinity 275.0 as CaCO3
	    S(6) 0.12472
	TITLE NEP23-20 -- Geochemical Solution
	SOLUTION 209 NEP23-20
	    units ppm
	    pH 7.02
	    temp 15.8
	    Ca 1.46427
	    Mg 0.24321
	    Na 1.56089
	    K 0.70195
	    Fe 0.0014199999999999998
	    Mn -0.00013
	    Si 5.28524
	    Cl nan
	    Alkalinity 185.0 as CaCO3
	    S(6) 0.0992
	TITLE NEP23-22 -- Geochemical Solution
	SOLUTION 211 NEP23-22
	    units ppm
	    pH 6.97
	    temp 13.8
	    Ca 1.44201
	    Mg 0.22312
	    Na 2.37331
	    K 0.21286
	    Fe 0.0028399999999999996
	    Mn 0.00074
	    Si 6.93201
	    Cl nan
	    Alkalinity 160.0 as CaCO3
	    S(6) 0.016
	TITLE NEP23-23 -- Geochemical Solution
	SOLUTION 212 NEP23-23
	    units ppm
	    pH 5.95
	    temp 13.2
	    Ca 0.59694
	    Mg 0.12522
	    Na 0.53342
	    K 0.31733
	    Fe 0.00934
	    Mn 0.01347
	    Si 2.94176
	    Cl nan
	    Alkalinity 93.0 as CaCO3
	    S(6) 0.09948
	TITLE NEP23-24 -- Geochemical Solution
	SOLUTION 213 NEP23-24
	    units ppm
	    pH 5.76
	    temp 15.5
	    Ca 1.22548
	    Mg 0.19883
	    Na 1.69183
	    K 0.34599
	    Fe 0.00102
	    Mn 0.00028
	    Si 5.86078
	    Cl nan
	    Alkalinity 114.0 as CaCO3
	    S(6) 0.08029
	TITLE NEP23-25 -- Geochemical Solution
	SOLUTION 214 NEP23-25
	    units ppm
	    pH 6.97
	    temp 17.9
	    Ca 3.10642
	    Mg 0.49738
	    Na 3.51692
	    K 0.96335
	    Fe 0.00352
	    Mn 0.0
	    Si 8.62946
	    Cl nan
	    Alkalinity 262.0 as CaCO3
	    S(6) 0.06156
	TITLE NEP23-26 -- Geochemical Solution
	SOLUTION 215 NEP23-26
	    units ppm
	    pH 7.04
	    temp 22.5
	    Ca 3.58595
	    Mg 0.31045
	    Na 4.54574
	    K 1.03947
	    Fe 0.00445
	    Mn 0.00043
	    Si 11.44005
	    Cl nan
	    Alkalinity 330.0 as CaCO3
	    S(6) 0.08791
	EQUILIBRIUM_PHASES 1
	    Calcite 0.0 0.0   # Saturation index for calcite
	    Gypsum 0.0 0.0    # Saturation index for gypsum
	    Quartz 0.0 0.0    # Saturation index for quartz
	    Halite 0.0 0.0    # Saturation index for halite
	    Dolomite 0.0 0.0  # Saturation index for dolomite
	    Anhydrite 0.0 0.0 # Saturation index for anhydrite
	    Pyrite 0.0 0.0    # Saturation index for pyrite
	    Hematite 0.0 0.0  # Saturation index for hematite
	    Siderite 0.0 0.0  # Saturation index for siderite
	    Kaolinite 0.0 0.0 # Saturation index for kaolinite
	    Gibbsite 0.0 0.0  # Saturation index for gibbsite
	    Goethite 0.0 0.0  # Saturation index for goethite
	    Anorthite 0.0 0.0 # Saturation index for anorthite
	    Albite 0.0 0.0    # Saturation index for albite
	    Illite 0.0 0.0    # Saturation index for illite
	SELECTED_OUTPUT
	    file results.txt
	    saturation_indices
-----
TITLE
-----

 NEP23-26 -- Geochemical Solution

-------------------------------------------
Beginning of initial solution calculations.
-------------------------------------------

Initial solution 70.	NEP22-10

WARNING: Equivalent wt for alkalinity should be Ca.5(CO3).5. Using 50.0455 g/eq.
-----------------------------Solution composition------------------------------

	Elements           Molality       Moles

	Alkalinity        2.844e-03   2.844e-03
	Ca                3.214e-05   3.214e-05
	Cl                1.713e-05   1.713e-05
	Fe                3.717e-08   3.717e-08
	K                 8.534e-06   8.534e-06
	Mg                9.359e-06   9.359e-06
	Mn                2.785e-08   2.785e-08
	Na                7.920e-05   7.920e-05
	S(6)              1.992e-07   1.992e-07
	Si                9.522e-05   9.522e-05

----------------------------Description of solution----------------------------

                                       pH  =   6.480    
                                       pe  =   4.000    
      Specific Conductance (µS/cm,  13°C)  = 95
                          Density (g/cm³)  =   0.99954
                               Volume (L)  =   1.00075
                        Viscosity (mPa s)  =   1.20877
                        Activity of water  =   1.000
                 Ionic strength (mol/kgw)  =   1.557e-03
                       Mass of water (kg)  =   1.000e+00
                    Total carbon (mol/kg)  =   5.313e-03
                       Total CO2 (mol/kg)  =   5.313e-03
                         Temperature (°C)  =  12.80
                  Electrical balance (eq)  =  -2.690e-03
 Percent error, 100*(Cat-|An|)/(Cat+|An|)  = -88.74
                               Iterations  =   9
                                  Total H  = 1.110157e+02
                                  Total O  = 5.552007e+01

----------------------------Distribution of species----------------------------

                                               Log       Log       Log    mole V
   Species          Molality    Activity  Molality  Activity     Gamma   cm³/mol

   H+              3.449e-07   3.311e-07    -6.462    -6.480    -0.018      0.00
   OH-             1.186e-08   1.135e-08    -7.926    -7.945    -0.019     -4.78
   H2O             5.551e+01   9.999e-01     1.744    -0.000     0.000     18.03
C(4)          5.313e-03
   HCO3-           2.843e-03   2.724e-03    -2.546    -2.565    -0.018     23.28
   CO2             2.470e-03   2.470e-03    -2.607    -2.607     0.000     33.81
   CO3-2           3.430e-07   2.894e-07    -6.465    -6.538    -0.074     -5.63
   MgHCO3+         2.465e-07   2.361e-07    -6.608    -6.627    -0.019      5.05
   CaHCO3+         1.684e-07   1.614e-07    -6.774    -6.792    -0.018    122.07
   NaHCO3          1.251e-07   1.252e-07    -6.903    -6.902     0.000     31.83
   (CO2)2          7.267e-08   7.269e-08    -7.139    -7.139     0.000     67.63
   CaCO3           1.090e-08   1.090e-08    -7.963    -7.962     0.000    -14.64
   KHCO3           8.081e-09   8.081e-09    -8.093    -8.093     0.000     40.94
   FeHCO3+         7.150e-09   6.848e-09    -8.146    -8.164    -0.019     (0)  
   MnHCO3+         4.834e-09   4.632e-09    -8.316    -8.334    -0.019     (0)  
   MgCO3           1.761e-09   1.762e-09    -8.754    -8.754     0.000    -17.08
   MnCO3           4.384e-10   4.385e-10    -9.358    -9.358     0.000     (0)  
   FeCO3           1.744e-10   1.745e-10    -9.758    -9.758     0.000     (0)  
Ca            3.214e-05
   Ca+2            3.196e-05   2.696e-05    -4.495    -4.569    -0.074    -18.33
   CaHCO3+         1.684e-07   1.614e-07    -6.774    -6.792    -0.018    122.07
   CaCO3           1.090e-08   1.090e-08    -7.963    -7.962     0.000    -14.64
   CaSO4           7.270e-10   7.273e-10    -9.138    -9.138     0.000      6.95
   CaOH+           1.411e-11   1.351e-11   -10.851   -10.869    -0.019     (0)  
   CaHSO4+         1.413e-15   1.353e-15   -14.850   -14.869    -0.019     (0)  
Cl            1.713e-05
   Cl-             1.713e-05   1.640e-05    -4.766    -4.785    -0.019     17.56
   HCl             2.015e-12   2.018e-12   -11.696   -11.695     0.001     (0)  
   MnCl+           1.330e-12   1.275e-12   -11.876   -11.895    -0.019     -6.94
   FeCl+           5.942e-13   5.691e-13   -12.226   -12.245    -0.019     (0)  
   MnCl2           9.122e-18   9.125e-18   -17.040   -17.040     0.000    103.97
   FeCl+2          4.693e-21   3.957e-21   -20.329   -20.403    -0.074     (0)  
   MnCl3-          4.302e-23   4.122e-23   -22.366   -22.385    -0.019     43.78
   FeCl2+          4.528e-25   4.339e-25   -24.344   -24.363    -0.019     (0)  
   FeCl3           7.114e-31   7.116e-31   -30.148   -30.148     0.000     (0)  
Fe(2)         3.709e-08
   Fe+2            2.975e-08   2.513e-08    -7.526    -7.600    -0.073    -23.03
   FeHCO3+         7.150e-09   6.848e-09    -8.146    -8.164    -0.019     (0)  
   FeCO3           1.744e-10   1.745e-10    -9.758    -9.758     0.000     (0)  
   FeOH+           9.682e-12   9.277e-12   -11.014   -11.033    -0.019     (0)  
   FeCl+           5.942e-13   5.691e-13   -12.226   -12.245    -0.019     (0)  
   FeSO4           5.909e-13   5.911e-13   -12.228   -12.228     0.000     34.41
   Fe(OH)2         7.884e-17   7.886e-17   -16.103   -16.103     0.000     (0)  
   FeHSO4+         1.317e-18   1.262e-18   -17.880   -17.899    -0.019     (0)  
   Fe(OH)3-        8.149e-21   7.809e-21   -20.089   -20.107    -0.019     (0)  
Fe(3)         8.633e-11
   Fe(OH)2+        7.098e-11   6.803e-11   -10.149   -10.167    -0.018     (0)  
   Fe(OH)3         1.520e-11   1.520e-11   -10.818   -10.818     0.000     (0)  
   FeOH+2          1.307e-13   1.102e-13   -12.884   -12.958    -0.074     (0)  
   Fe(OH)4-        2.620e-14   2.511e-14   -13.582   -13.600    -0.018     (0)  
   Fe+3            1.725e-17   1.195e-17   -16.763   -16.922    -0.159     (0)  
   FeSO4+          1.723e-20   1.651e-20   -19.764   -19.782    -0.019     (0)  
   FeCl+2          4.693e-21   3.957e-21   -20.329   -20.403    -0.074     (0)  
   Fe2(OH)2+4      1.104e-24   5.531e-25   -23.957   -24.257    -0.300     (0)  
   FeCl2+          4.528e-25   4.339e-25   -24.344   -24.363    -0.019     (0)  
   Fe(SO4)2-       5.988e-26   5.735e-26   -25.223   -25.241    -0.019     (0)  
   FeHSO4+2        1.791e-26   1.507e-26   -25.747   -25.822    -0.075     (0)  
   FeCl3           7.114e-31   7.116e-31   -30.148   -30.148     0.000     (0)  
   Fe3(OH)4+5      7.482e-32   2.543e-32   -31.126   -31.595    -0.469     (0)  
H(0)          1.762e-24
   H2              8.808e-25   8.811e-25   -24.055   -24.055     0.000     28.62
K             8.534e-06
   K+              8.526e-06   8.164e-06    -5.069    -5.088    -0.019      8.54
   KHCO3           8.081e-09   8.081e-09    -8.093    -8.093     0.000     40.94
   KSO4-           2.090e-11   2.004e-11   -10.680   -10.698    -0.018     12.80
Mg            9.359e-06
   Mg+2            9.110e-06   7.694e-06    -5.040    -5.114    -0.073    -21.33
   MgHCO3+         2.465e-07   2.361e-07    -6.608    -6.627    -0.019      5.05
   MgCO3           1.761e-09   1.762e-09    -8.754    -8.754     0.000    -17.08
   MgSO4           2.450e-10   2.452e-10    -9.611    -9.610     0.000    -12.99
   MgOH+           2.789e-11   2.675e-11   -10.555   -10.573    -0.018     (0)  
   Mg(SO4)2-2      2.017e-16   1.708e-16   -15.695   -15.768    -0.072     -4.97
Mn(2)         2.785e-08
   Mn+2            2.258e-08   1.907e-08    -7.646    -7.720    -0.073    -21.18
   MnHCO3+         4.834e-09   4.632e-09    -8.316    -8.334    -0.019     (0)  
   MnCO3           4.384e-10   4.385e-10    -9.358    -9.358     0.000     (0)  
   MnCl+           1.330e-12   1.275e-12   -11.876   -11.895    -0.019     -6.94
   MnOH+           5.478e-13   5.249e-13   -12.261   -12.280    -0.019     (0)  
   MnSO4           4.439e-13   4.441e-13   -12.353   -12.353     0.000     29.06
   MnCl2           9.122e-18   9.125e-18   -17.040   -17.040     0.000    103.97
   MnCl3-          4.302e-23   4.122e-23   -22.366   -22.385    -0.019     43.78
   Mn(OH)3-        8.687e-24   8.324e-24   -23.061   -23.080    -0.019     (0)  
Mn(3)         1.327e-30
   Mn+3            1.327e-30   9.196e-31   -29.877   -30.036    -0.159     (0)  
Na            7.920e-05
   Na+             7.907e-05   7.575e-05    -4.102    -4.121    -0.019     -2.25
   NaHCO3          1.251e-07   1.252e-07    -6.903    -6.902     0.000     31.83
   NaSO4-          1.899e-10   1.820e-10    -9.722    -9.740    -0.018    -22.87
   NaOH            8.597e-23   8.600e-23   -22.066   -22.066     0.000     (0)  
O(0)          0.000e+00
   O2              0.000e+00   0.000e+00   -48.375   -48.375     0.000     29.27
S(6)          1.992e-07
   SO4-2           1.980e-07   1.669e-07    -6.703    -6.778    -0.074     13.80
   CaSO4           7.270e-10   7.273e-10    -9.138    -9.138     0.000      6.95
   MgSO4           2.450e-10   2.452e-10    -9.611    -9.610     0.000    -12.99
   NaSO4-          1.899e-10   1.820e-10    -9.722    -9.740    -0.018    -22.87
   KSO4-           2.090e-11   2.004e-11   -10.680   -10.698    -0.018     12.80
   HSO4-           4.359e-12   4.175e-12   -11.361   -11.379    -0.019     39.23
   FeSO4           5.909e-13   5.911e-13   -12.228   -12.228     0.000     34.41
   MnSO4           4.439e-13   4.441e-13   -12.353   -12.353     0.000     29.06
   CaHSO4+         1.413e-15   1.353e-15   -14.850   -14.869    -0.019     (0)  
   Mg(SO4)2-2      2.017e-16   1.708e-16   -15.695   -15.768    -0.072     -4.97
   FeHSO4+         1.317e-18   1.262e-18   -17.880   -17.899    -0.019     (0)  
   FeSO4+          1.723e-20   1.651e-20   -19.764   -19.782    -0.019     (0)  
   Fe(SO4)2-       5.988e-26   5.735e-26   -25.223   -25.241    -0.019     (0)  
   FeHSO4+2        1.791e-26   1.507e-26   -25.747   -25.822    -0.075     (0)  
Si            9.522e-05
   H4SiO4          9.520e-05   9.523e-05    -4.021    -4.021     0.000     53.31
   H3SiO4-         2.795e-08   2.676e-08    -7.554    -7.572    -0.019     27.55
   H2SiO4-2        2.772e-15   2.339e-15   -14.557   -14.631    -0.074     (0)  

------------------------------Saturation indices-------------------------------

  Phase               SI** log IAP   log K(285 K,   1 atm)

  Anhydrite        -7.20    -11.35   -4.15  CaSO4
  Aragonite        -2.84    -11.11   -8.27  CaCO3
  Arcanite        -14.89    -16.95   -2.06  K2SO4
  Calcite          -2.70    -11.11   -8.41  CaCO3
  Chalcedony       -0.32     -4.02   -3.70  SiO2
  Chrysotile      -18.28     15.50   33.78  Mg3Si2O5(OH)4
  CO2(g)           -1.30     -2.61   -1.31  CO2
  Dolomite         -5.85    -22.76  -16.91  CaMg(CO3)2
  Epsomite        -10.08    -11.89   -1.81  MgSO4:7H2O
  Fe(OH)3(a)       -2.37      2.52    4.89  Fe(OH)3
  Goethite          3.06      2.52   -0.55  FeOOH
  Gypsum           -6.75    -11.35   -4.59  CaSO4:2H2O
  H2(g)           -20.99    -24.05   -3.07  H2
  H2O(g)           -1.83     -0.00    1.83  H2O
  Halite          -10.47     -8.91    1.56  NaCl
  Hausmannite     -27.50     36.68   64.18  Mn3O4
  Hematite          8.08      5.03   -3.04  Fe2O3
  Hexahydrite     -10.31    -11.89   -1.58  MgSO4:6H2O
  Jarosite-K      -22.30    -30.53   -8.23  KFe3(SO4)2(OH)6
  Kieserite       -10.62    -11.89   -1.27  MgSO4:H2O
  Manganite        -9.62     15.72   25.34  MnOOH
  Melanterite     -12.01    -14.38   -2.37  FeSO4:7H2O
  Mirabilite      -13.20    -15.02   -1.82  Na2SO4:10H2O
  O2(g)           -45.58    -48.38   -2.79  O2
  Pyrochroite      -9.96      5.24   15.20  Mn(OH)2
  Pyrolusite      -17.22     26.20   43.42  MnO2:H2O
  Quartz            0.15     -4.02   -4.17  SiO2
  Rhodochrosite    -3.17    -14.26  -11.09  MnCO3
  Sepiolite       -12.47      3.63   16.09  Mg2Si3O7.5OH:3H2O
  Sepiolite(d)    -15.03      3.63   18.66  Mg2Si3O7.5OH:3H2O
  Siderite         -3.33    -14.14  -10.81  FeCO3
  SiO2(a)          -1.20     -4.02   -2.82  SiO2
  Sylvite         -10.71     -9.87    0.84  KCl
  Talc            -15.39      7.45   22.85  Mg3Si4O10(OH)2
  Thenardite      -14.78    -15.02   -0.24  Na2SO4

**For a gas, SI = log10(fugacity). Fugacity = pressure * phi / 1 atm.
  For ideal gases, phi = 1.

Initial solution 71.	NEP22-11

WARNING: Equivalent wt for alkalinity should be Ca.5(CO3).5. Using 50.0455 g/eq.
-----------------------------Solution composition------------------------------

	Elements           Molality       Moles

	Alkalinity        3.474e-03   3.474e-03
	Ca                3.777e-05   3.777e-05
	Cl                1.577e-05   1.577e-05
	Fe                5.181e-08   5.181e-08
	K                 1.029e-05   1.029e-05
	Mg                1.069e-05   1.069e-05
	Mn                8.375e-09   8.375e-09
	Na                9.020e-05   9.020e-05
	S(6)              5.158e-07   5.158e-07
	Si                1.050e-04   1.050e-04

----------------------------Description of solution----------------------------

                                       pH  =   6.590    
                                       pe  =   4.000    
      Specific Conductance (µS/cm,  13°C)  = 116
                          Density (g/cm³)  =   0.99950
                               Volume (L)  =   1.00083
                        Viscosity (mPa s)  =   1.19268
                        Activity of water  =   1.000
                 Ionic strength (mol/kgw)  =   1.892e-03
                       Mass of water (kg)  =   1.000e+00
                    Total carbon (mol/kg)  =   5.782e-03
                       Total CO2 (mol/kg)  =   5.782e-03
                         Temperature (°C)  =  13.30
                  Electrical balance (eq)  =  -3.293e-03
 Percent error, 100*(Cat-|An|)/(Cat+|An|)  = -89.32
                               Iterations  =   9 (18 overall)
                                  Total H  = 1.110163e+02
                                  Total O  = 5.552168e+01

----------------------------Distribution of species----------------------------

                                               Log       Log       Log    mole V
   Species          Molality    Activity  Molality  Activity     Gamma   cm³/mol

   H+              2.687e-07   2.570e-07    -6.571    -6.590    -0.019      0.00
   OH-             1.602e-08   1.527e-08    -7.795    -7.816    -0.021     -4.74
   H2O             5.551e+01   9.999e-01     1.744    -0.000     0.000     18.03
C(4)          5.782e-03
   HCO3-           3.472e-03   3.314e-03    -2.459    -2.480    -0.020     23.36
   CO2             2.308e-03   2.309e-03    -2.637    -2.637     0.000     33.84
   CO3-2           5.538e-07   4.597e-07    -6.257    -6.338    -0.081     -5.52
   MgHCO3+         3.371e-07   3.214e-07    -6.472    -6.493    -0.021      5.07
   CaHCO3+         2.430e-07   2.321e-07    -6.614    -6.634    -0.020    122.11
   NaHCO3          1.752e-07   1.754e-07    -6.756    -6.756     0.000     31.83
   (CO2)2          6.471e-08   6.474e-08    -7.189    -7.189     0.000     67.68
   CaCO3           2.008e-08   2.009e-08    -7.697    -7.697     0.000    -14.64
   KHCO3           1.191e-08   1.191e-08    -7.924    -7.924     0.000     40.94
   FeHCO3+         1.148e-08   1.095e-08    -7.940    -7.961    -0.021     (0)  
   MgCO3           3.152e-09   3.153e-09    -8.501    -8.501     0.000    -17.08
   MnHCO3+         1.673e-09   1.597e-09    -8.776    -8.797    -0.020     (0)  
   FeCO3           3.641e-10   3.643e-10    -9.439    -9.439     0.000     (0)  
   MnCO3           1.973e-10   1.974e-10    -9.705    -9.705     0.000     (0)  
Ca            3.777e-05
   Ca+2            3.750e-05   3.112e-05    -4.426    -4.507    -0.081    -18.31
   CaHCO3+         2.430e-07   2.321e-07    -6.614    -6.634    -0.020    122.11
   CaCO3           2.008e-08   2.009e-08    -7.697    -7.697     0.000    -14.64
   CaSO4           2.145e-09   2.146e-09    -8.669    -8.668     0.000      6.98
   CaOH+           2.107e-11   2.009e-11   -10.676   -10.697    -0.021     (0)  
   CaHSO4+         3.268e-15   3.117e-15   -14.486   -14.506    -0.021     (0)  
Cl            1.577e-05
   Cl-             1.577e-05   1.503e-05    -4.802    -4.823    -0.021     17.59
   HCl             1.429e-12   1.431e-12   -11.845   -11.844     0.001     (0)  
   FeCl+           7.188e-13   6.855e-13   -12.143   -12.164    -0.021     (0)  
   MnCl+           3.470e-13   3.311e-13   -12.460   -12.480    -0.020     -6.73
   MnCl2           2.172e-18   2.173e-18   -17.663   -17.663     0.000    103.08
   FeCl+2          6.023e-21   4.995e-21   -20.220   -20.301    -0.081     (0)  
   MnCl3-          9.428e-24   8.997e-24   -23.026   -23.046    -0.020     43.77
   FeCl2+          5.171e-25   4.935e-25   -24.286   -24.307    -0.020     (0)  
   FeCl3           7.416e-31   7.419e-31   -30.130   -30.130     0.000     (0)  
Fe(2)         5.160e-08
   Fe+2            3.973e-08   3.303e-08    -7.401    -7.481    -0.080    -22.97
   FeHCO3+         1.148e-08   1.095e-08    -7.940    -7.961    -0.021     (0)  
   FeCO3           3.641e-10   3.643e-10    -9.439    -9.439     0.000     (0)  
   FeOH+           1.714e-11   1.636e-11   -10.766   -10.786    -0.020     (0)  
   FeSO4           1.996e-12   1.997e-12   -11.700   -11.700     0.000     33.65
   FeCl+           7.188e-13   6.855e-13   -12.143   -12.164    -0.021     (0)  
   Fe(OH)2         1.877e-16   1.878e-16   -15.727   -15.726     0.000     (0)  
   FeHSO4+         3.469e-18   3.308e-18   -17.460   -17.480    -0.021     (0)  
   Fe(OH)3-        2.523e-20   2.408e-20   -19.598   -19.618    -0.020     (0)  
Fe(3)         2.166e-10
   Fe(OH)2+        1.688e-10   1.611e-10    -9.773    -9.793    -0.020     (0)  
   Fe(OH)3         4.746e-11   4.748e-11   -10.324   -10.323     0.000     (0)  
   FeOH+2          2.393e-13   1.985e-13   -12.621   -12.702    -0.081     (0)  
   Fe(OH)4-        1.082e-13   1.033e-13   -12.966   -12.986    -0.020     (0)  
   Fe+3            2.414e-17   1.619e-17   -16.617   -16.791    -0.174     (0)  
   FeSO4+          6.033e-20   5.757e-20   -19.219   -19.240    -0.020     (0)  
   FeCl+2          6.023e-21   4.995e-21   -20.220   -20.301    -0.081     (0)  
   Fe2(OH)2+4      3.743e-24   1.754e-24   -23.427   -23.756    -0.329     (0)  
   Fe(SO4)2-       5.350e-25   5.102e-25   -24.272   -24.292    -0.021     (0)  
   FeCl2+          5.171e-25   4.935e-25   -24.286   -24.307    -0.020     (0)  
   FeHSO4+2        4.921e-26   4.072e-26   -25.308   -25.390    -0.082     (0)  
   FeCl3           7.416e-31   7.419e-31   -30.130   -30.130     0.000     (0)  
   Fe3(OH)4+5      5.935e-31   1.816e-31   -30.227   -30.741    -0.514     (0)  
H(0)          1.056e-24
   H2              5.278e-25   5.280e-25   -24.278   -24.277     0.000     28.62
K             1.029e-05
   K+              1.028e-05   9.804e-06    -4.988    -5.009    -0.021      8.57
   KHCO3           1.191e-08   1.191e-08    -7.924    -7.924     0.000     40.94
   KSO4-           6.418e-11   6.131e-11   -10.193   -10.212    -0.020     12.87
Mg            1.069e-05
   Mg+2            1.035e-05   8.604e-06    -4.985    -5.065    -0.080    -21.34
   MgHCO3+         3.371e-07   3.214e-07    -6.472    -6.493    -0.021      5.07
   MgCO3           3.152e-09   3.153e-09    -8.501    -8.501     0.000    -17.08
   MgSO4           7.064e-10   7.070e-10    -9.151    -9.151     0.000    -12.74
   MgOH+           4.236e-11   4.046e-11   -10.373   -10.393    -0.020     (0)  
   Mg(SO4)2-2      1.489e-15   1.241e-15   -14.827   -14.906    -0.079     -3.93
Mn(2)         8.375e-09
   Mn+2            6.503e-09   5.406e-09    -8.187    -8.267    -0.080    -21.07
   MnHCO3+         1.673e-09   1.597e-09    -8.776    -8.797    -0.020     (0)  
   MnCO3           1.973e-10   1.974e-10    -9.705    -9.705     0.000     (0)  
   MnCl+           3.470e-13   3.311e-13   -12.460   -12.480    -0.020     -6.73
   MnSO4           3.236e-13   3.237e-13   -12.490   -12.490     0.000     28.74
   MnOH+           2.099e-13   2.003e-13   -12.678   -12.698    -0.020     (0)  
   MnCl2           2.172e-18   2.173e-18   -17.663   -17.663     0.000    103.08
   MnCl3-          9.428e-24   8.997e-24   -23.026   -23.046    -0.020     43.77
   Mn(OH)3-        5.285e-24   5.044e-24   -23.277   -23.297    -0.020     (0)  
Mn(3)         4.209e-31
   Mn+3            4.209e-31   2.821e-31   -30.376   -30.550    -0.174     (0)  
Na            9.020e-05
   Na+             9.002e-05   8.589e-05    -4.046    -4.066    -0.020     -2.20
   NaHCO3          1.752e-07   1.754e-07    -6.756    -6.756     0.000     31.83
   NaSO4-          5.536e-10   5.285e-10    -9.257    -9.277    -0.020    -22.29
   NaOH            1.311e-22   1.311e-22   -21.882   -21.882     0.000     (0)  
O(0)          0.000e+00
   O2              0.000e+00   0.000e+00   -47.756   -47.756     0.000     29.33
S(6)          5.158e-07
   SO4-2           5.123e-07   4.248e-07    -6.290    -6.372    -0.081     14.05
   CaSO4           2.145e-09   2.146e-09    -8.669    -8.668     0.000      6.98
   MgSO4           7.064e-10   7.070e-10    -9.151    -9.151     0.000    -12.74
   NaSO4-          5.536e-10   5.285e-10    -9.257    -9.277    -0.020    -22.29
   KSO4-           6.418e-11   6.131e-11   -10.193   -10.212    -0.020     12.87
   HSO4-           8.734e-12   8.330e-12   -11.059   -11.079    -0.021     39.29
   FeSO4           1.996e-12   1.997e-12   -11.700   -11.700     0.000     33.65
   MnSO4           3.236e-13   3.237e-13   -12.490   -12.490     0.000     28.74
   CaHSO4+         3.268e-15   3.117e-15   -14.486   -14.506    -0.021     (0)  
   Mg(SO4)2-2      1.489e-15   1.241e-15   -14.827   -14.906    -0.079     -3.93
   FeHSO4+         3.469e-18   3.308e-18   -17.460   -17.480    -0.021     (0)  
   FeSO4+          6.033e-20   5.757e-20   -19.219   -19.240    -0.020     (0)  
   Fe(SO4)2-       5.350e-25   5.102e-25   -24.272   -24.292    -0.021     (0)  
   FeHSO4+2        4.921e-26   4.072e-26   -25.308   -25.390    -0.082     (0)  
Si            1.050e-04
   H4SiO4          1.050e-04   1.050e-04    -3.979    -3.979     0.000     53.25
   H3SiO4-         4.069e-08   3.880e-08    -7.391    -7.411    -0.021     27.57
   H2SiO4-2        5.464e-15   4.536e-15   -14.262   -14.343    -0.081     (0)  

------------------------------Saturation indices-------------------------------

  Phase               SI** log IAP   log K(286 K,   1 atm)

  Anhydrite        -6.72    -10.88   -4.15  CaSO4
  Aragonite        -2.57    -10.84   -8.27  CaCO3
  Arcanite        -14.34    -16.39   -2.05  K2SO4
  Calcite          -2.43    -10.84   -8.41  CaCO3
  Chalcedony       -0.29     -3.98   -3.69  SiO2
  Chrysotile      -17.32     16.39   33.71  Mg3Si2O5(OH)4
  CO2(g)           -1.32     -2.64   -1.32  CO2
  Dolomite         -5.33    -22.25  -16.92  CaMg(CO3)2
  Epsomite         -9.63    -11.44   -1.81  MgSO4:7H2O
  Fe(OH)3(a)       -1.91      2.98    4.89  Fe(OH)3
  Goethite          3.55      2.98   -0.57  FeOOH
  Gypsum           -6.29    -10.88   -4.59  CaSO4:2H2O
  H2(g)           -21.21    -24.28   -3.07  H2
  H2O(g)           -1.82     -0.00    1.82  H2O
  Halite          -10.45     -8.89    1.56  NaCl
  Hausmannite     -28.12     35.92   64.04  Mn3O4
  Hematite          9.04      5.96   -3.08  Fe2O3
  Hexahydrite      -9.85    -11.44   -1.58  MgSO4:6H2O
  Jarosite-K      -20.31    -28.59   -8.27  KFe3(SO4)2(OH)6
  Kieserite       -10.17    -11.44   -1.27  MgSO4:H2O
  Manganite        -9.84     15.50   25.34  MnOOH
  Melanterite     -11.49    -13.85   -2.36  FeSO4:7H2O
  Mirabilite      -12.71    -14.50   -1.79  Na2SO4:10H2O
  O2(g)           -44.96    -47.76   -2.80  O2
  Pyrochroite     -10.29      4.91   15.20  Mn(OH)2
  Pyrolusite      -17.24     26.09   43.33  MnO2:H2O
  Quartz            0.18     -3.98   -4.16  SiO2
  Rhodochrosite    -3.52    -14.60  -11.09  MnCO3
  Sepiolite       -11.79      4.29   16.08  Mg2Si3O7.5OH:3H2O
  Sepiolite(d)    -14.37      4.29   18.66  Mg2Si3O7.5OH:3H2O
  Siderite         -3.00    -13.82  -10.82  FeCO3
  SiO2(a)          -1.17     -3.98   -2.81  SiO2
  Sylvite         -10.67     -9.83    0.84  KCl
  Talc            -14.36      8.43   22.79  Mg3Si4O10(OH)2
  Thenardite      -14.26    -14.50   -0.24  Na2SO4

**For a gas, SI = log10(fugacity). Fugacity = pressure * phi / 1 atm.
  For ideal gases, phi = 1.

Initial solution 72.	NEP22-12

WARNING: Equivalent wt for alkalinity should be Ca.5(CO3).5. Using 50.0455 g/eq.
-----------------------------Solution composition------------------------------

	Elements           Molality       Moles

	Alkalinity        3.465e-03   3.465e-03
	Ca                2.613e-05   2.613e-05
	Cl                2.889e-06   2.889e-06
	Fe                2.320e-08   2.320e-08
	K                 7.668e-06   7.668e-06
	Mg                6.256e-06   6.256e-06
	Mn                2.367e-09   2.367e-09
	Na                5.224e-05   5.224e-05
	S(6)              7.540e-07   7.540e-07
	Si                8.364e-05   8.364e-05

----------------------------Description of solution----------------------------

                                       pH  =   6.770    
                                       pe  =   4.000    
      Specific Conductance (µS/cm,  13°C)  = 113
                          Density (g/cm³)  =   0.99948
                               Volume (L)  =   1.00081
                        Viscosity (mPa s)  =   1.18943
                        Activity of water  =   1.000
                 Ionic strength (mol/kgw)  =   1.831e-03
                       Mass of water (kg)  =   1.000e+00
                    Total carbon (mol/kg)  =   4.984e-03
                       Total CO2 (mol/kg)  =   4.984e-03
                         Temperature (°C)  =  13.40
                  Electrical balance (eq)  =  -3.345e-03
 Percent error, 100*(Cat-|An|)/(Cat+|An|)  = -93.08
                               Iterations  =  10 (28 overall)
                                  Total H  = 1.110162e+02
                                  Total O  = 5.551999e+01

----------------------------Distribution of species----------------------------

                                               Log       Log       Log    mole V
   Species          Molality    Activity  Molality  Activity     Gamma   cm³/mol

   H+              1.774e-07   1.698e-07    -6.751    -6.770    -0.019      0.00
   OH-             2.443e-08   2.331e-08    -7.612    -7.632    -0.020     -4.73
   H2O             5.551e+01   9.999e-01     1.744    -0.000     0.000     18.03
C(4)          4.984e-03
   HCO3-           3.463e-03   3.308e-03    -2.461    -2.480    -0.020     23.37
   CO2             1.519e-03   1.520e-03    -2.818    -2.818     0.000     33.85
   CO3-2           8.366e-07   6.964e-07    -6.077    -6.157    -0.080     -5.51
   MgHCO3+         1.972e-07   1.882e-07    -6.705    -6.725    -0.020      5.08
   CaHCO3+         1.690e-07   1.615e-07    -6.772    -6.792    -0.020    122.11
   NaHCO3          1.017e-07   1.018e-07    -6.993    -6.992     0.000     31.83
   (CO2)2          2.814e-08   2.815e-08    -7.551    -7.550     0.000     67.69
   CaCO3           2.112e-08   2.113e-08    -7.675    -7.675     0.000    -14.64
   KHCO3           8.877e-09   8.877e-09    -8.052    -8.052     0.000     40.94
   FeHCO3+         5.086e-09   4.854e-09    -8.294    -8.314    -0.020     (0)  
   MgCO3           2.805e-09   2.806e-09    -8.552    -8.552     0.000    -17.08
   MnHCO3+         4.673e-10   4.462e-10    -9.330    -9.350    -0.020     (0)  
   FeCO3           2.450e-10   2.451e-10    -9.611    -9.611     0.000     (0)  
   MnCO3           8.369e-11   8.373e-11   -10.077   -10.077     0.000     (0)  
Ca            2.613e-05
   Ca+2            2.594e-05   2.159e-05    -4.586    -4.666    -0.080    -18.31
   CaHCO3+         1.690e-07   1.615e-07    -6.772    -6.792    -0.020    122.11
   CaCO3           2.112e-08   2.113e-08    -7.675    -7.675     0.000    -14.64
   CaSO4           2.188e-09   2.189e-09    -8.660    -8.660     0.000      6.98
   CaOH+           2.210e-11   2.110e-11   -10.656   -10.676    -0.020     (0)  
   CaHSO4+         2.204e-15   2.103e-15   -14.657   -14.677    -0.020     (0)  
Cl            2.889e-06
   Cl-             2.889e-06   2.757e-06    -5.539    -5.560    -0.020     17.60
   HCl             1.730e-13   1.733e-13   -12.762   -12.761     0.001     (0)  
   FeCl+           5.850e-14   5.583e-14   -13.233   -13.253    -0.020     (0)  
   MnCl+           1.780e-14   1.700e-14   -13.750   -13.770    -0.020     -6.70
   MnCl2           2.044e-20   2.045e-20   -19.689   -19.689     0.000    102.90
   FeCl+2          4.938e-22   4.107e-22   -21.306   -21.386    -0.080     (0)  
   MnCl3-          1.626e-26   1.553e-26   -25.789   -25.809    -0.020     43.76
   FeCl2+          7.763e-27   7.414e-27   -26.110   -26.130    -0.020     (0)  
   FeCl3           2.043e-33   2.044e-33   -32.690   -32.690     0.000     (0)  
Fe(2)         2.295e-08
   Fe+2            1.760e-08   1.467e-08    -7.754    -7.833    -0.079    -22.96
   FeHCO3+         5.086e-09   4.854e-09    -8.294    -8.314    -0.020     (0)  
   FeCO3           2.450e-10   2.451e-10    -9.611    -9.611     0.000     (0)  
   FeOH+           1.161e-11   1.109e-11   -10.935   -10.955    -0.020     (0)  
   FeSO4           1.306e-12   1.306e-12   -11.884   -11.884     0.000     33.50
   FeCl+           5.850e-14   5.583e-14   -13.233   -13.253    -0.020     (0)  
   Fe(OH)2         1.944e-16   1.945e-16   -15.711   -15.711     0.000     (0)  
   FeHSO4+         1.498e-18   1.430e-18   -17.825   -17.845    -0.020     (0)  
   Fe(OH)3-        3.957e-20   3.779e-20   -19.403   -19.423    -0.020     (0)  
Fe(3)         2.496e-10
   Fe(OH)2+        1.745e-10   1.667e-10    -9.758    -9.778    -0.020     (0)  
   Fe(OH)3         7.467e-11   7.470e-11   -10.127   -10.127     0.000     (0)  
   Fe(OH)4-        2.585e-13   2.470e-13   -12.587   -12.607    -0.020     (0)  
   FeOH+2          1.625e-13   1.351e-13   -12.789   -12.869    -0.080     (0)  
   Fe+3            1.073e-17   7.233e-18   -16.970   -17.141    -0.171     (0)  
   FeSO4+          3.968e-20   3.790e-20   -19.401   -19.421    -0.020     (0)  
   FeCl+2          4.938e-22   4.107e-22   -21.306   -21.386    -0.080     (0)  
   Fe2(OH)2+4      1.707e-24   8.090e-25   -23.768   -24.092    -0.324     (0)  
   Fe(SO4)2-       5.173e-25   4.937e-25   -24.286   -24.307    -0.020     (0)  
   FeHSO4+2        2.133e-26   1.770e-26   -25.671   -25.752    -0.081     (0)  
   FeCl2+          7.763e-27   7.414e-27   -26.110   -26.130    -0.020     (0)  
   Fe3(OH)4+5      2.754e-31   8.580e-32   -30.560   -31.067    -0.506     (0)  
   FeCl3           2.043e-33   2.044e-33   -32.690   -32.690     0.000     (0)  
H(0)          4.603e-25
   H2              2.301e-25   2.302e-25   -24.638   -24.638     0.000     28.62
K             7.668e-06
   K+              7.659e-06   7.308e-06    -5.116    -5.136    -0.020      8.57
   KHCO3           8.877e-09   8.877e-09    -8.052    -8.052     0.000     40.94
   KSO4-           7.025e-11   6.716e-11   -10.153   -10.173    -0.020     12.89
Mg            6.256e-06
   Mg+2            6.055e-06   5.046e-06    -5.218    -5.297    -0.079    -21.34
   MgHCO3+         1.972e-07   1.882e-07    -6.705    -6.725    -0.020      5.08
   MgCO3           2.805e-09   2.806e-09    -8.552    -8.552     0.000    -17.08
   MgSO4           6.105e-10   6.110e-10    -9.214    -9.214     0.000    -12.69
   MgOH+           3.795e-11   3.627e-11   -10.421   -10.440    -0.020     (0)  
   Mg(SO4)2-2      1.881e-15   1.572e-15   -14.726   -14.804    -0.078     -4.07
Mn(2)         2.367e-09
   Mn+2            1.816e-09   1.513e-09    -8.741    -8.820    -0.079    -21.08
   MnHCO3+         4.673e-10   4.462e-10    -9.330    -9.350    -0.020     (0)  
   MnCO3           8.369e-11   8.373e-11   -10.077   -10.077     0.000     (0)  
   MnSO4           1.334e-13   1.334e-13   -12.875   -12.875     0.000     28.68
   MnOH+           8.968e-14   8.564e-14   -13.047   -13.067    -0.020     (0)  
   MnCl+           1.780e-14   1.700e-14   -13.750   -13.770    -0.020     -6.70
   MnCl2           2.044e-20   2.045e-20   -19.689   -19.689     0.000    102.90
   Mn(OH)3-        5.127e-24   4.896e-24   -23.290   -23.310    -0.020     (0)  
   MnCl3-          1.626e-26   1.553e-26   -25.789   -25.809    -0.020     43.76
Mn(3)         1.190e-31
   Mn+3            1.190e-31   8.025e-32   -30.924   -31.096    -0.171     (0)  
Na            5.224e-05
   Na+             5.213e-05   4.977e-05    -4.283    -4.303    -0.020     -2.20
   NaHCO3          1.017e-07   1.018e-07    -6.993    -6.992     0.000     31.83
   NaSO4-          4.717e-10   4.506e-10    -9.326    -9.346    -0.020    -22.34
   NaOH            1.160e-22   1.160e-22   -21.936   -21.935     0.000     (0)  
O(0)          0.000e+00
   O2              0.000e+00   0.000e+00   -47.000   -47.000     0.000     29.34
S(6)          7.540e-07
   SO4-2           7.507e-07   6.242e-07    -6.125    -6.205    -0.080     14.05
   CaSO4           2.188e-09   2.189e-09    -8.660    -8.660     0.000      6.98
   MgSO4           6.105e-10   6.110e-10    -9.214    -9.214     0.000    -12.69
   NaSO4-          4.717e-10   4.506e-10    -9.326    -9.346    -0.020    -22.34
   KSO4-           7.025e-11   6.716e-11   -10.153   -10.173    -0.020     12.89
   HSO4-           8.490e-12   8.103e-12   -11.071   -11.091    -0.020     39.30
   FeSO4           1.306e-12   1.306e-12   -11.884   -11.884     0.000     33.50
   MnSO4           1.334e-13   1.334e-13   -12.875   -12.875     0.000     28.68
   CaHSO4+         2.204e-15   2.103e-15   -14.657   -14.677    -0.020     (0)  
   Mg(SO4)2-2      1.881e-15   1.572e-15   -14.726   -14.804    -0.078     -4.07
   FeHSO4+         1.498e-18   1.430e-18   -17.825   -17.845    -0.020     (0)  
   FeSO4+          3.968e-20   3.790e-20   -19.401   -19.421    -0.020     (0)  
   Fe(SO4)2-       5.173e-25   4.937e-25   -24.286   -24.307    -0.020     (0)  
   FeHSO4+2        2.133e-26   1.770e-26   -25.671   -25.752    -0.081     (0)  
Si            8.364e-05
   H4SiO4          8.359e-05   8.363e-05    -4.078    -4.078     0.000     53.24
   H3SiO4-         4.920e-08   4.696e-08    -7.308    -7.328    -0.020     27.58
   H2SiO4-2        1.006e-14   8.371e-15   -13.998   -14.077    -0.080     (0)  

------------------------------Saturation indices-------------------------------

  Phase               SI** log IAP   log K(286 K,   1 atm)

  Anhydrite        -6.72    -10.87   -4.16  CaSO4
  Aragonite        -2.55    -10.82   -8.27  CaCO3
  Arcanite        -14.43    -16.48   -2.05  K2SO4
  Calcite          -2.41    -10.82   -8.41  CaCO3
  Chalcedony       -0.39     -4.08   -3.69  SiO2
  Chrysotile      -17.12     16.57   33.69  Mg3Si2O5(OH)4
  CO2(g)           -1.50     -2.82   -1.32  CO2
  Dolomite         -5.36    -22.28  -16.92  CaMg(CO3)2
  Epsomite         -9.69    -11.50   -1.81  MgSO4:7H2O
  Fe(OH)3(a)       -1.72      3.17    4.89  Fe(OH)3
  Goethite          3.74      3.17   -0.57  FeOOH
  Gypsum           -6.28    -10.87   -4.59  CaSO4:2H2O
  H2(g)           -21.57    -24.64   -3.07  H2
  H2O(g)           -1.81     -0.00    1.81  H2O
  Halite          -11.42     -9.86    1.56  NaCl
  Hausmannite     -28.32     35.70   64.02  Mn3O4
  Hematite          9.43      6.34   -3.09  Fe2O3
  Hexahydrite      -9.92    -11.50   -1.58  MgSO4:6H2O
  Jarosite-K      -20.07    -28.35   -8.28  KFe3(SO4)2(OH)6
  Kieserite       -10.24    -11.50   -1.27  MgSO4:H2O
  Manganite        -9.85     15.49   25.34  MnOOH
  Melanterite     -11.68    -14.04   -2.36  FeSO4:7H2O
  Mirabilite      -13.02    -14.81   -1.79  Na2SO4:10H2O
  O2(g)           -44.20    -47.00   -2.80  O2
  Pyrochroite     -10.48      4.72   15.20  Mn(OH)2
  Pyrolusite      -17.05     26.26   43.31  MnO2:H2O
  Quartz            0.08     -4.08   -4.16  SiO2
  Rhodochrosite    -3.89    -14.98  -11.09  MnCO3
  Sepiolite       -11.82      4.25   16.08  Mg2Si3O7.5OH:3H2O
  Sepiolite(d)    -14.41      4.25   18.66  Mg2Si3O7.5OH:3H2O
  Siderite         -3.17    -13.99  -10.82  FeCO3
  SiO2(a)          -1.27     -4.08   -2.81  SiO2
  Sylvite         -11.54    -10.70    0.84  KCl
  Talc            -14.36      8.42   22.77  Mg3Si4O10(OH)2
  Thenardite      -14.57    -14.81   -0.25  Na2SO4

**For a gas, SI = log10(fugacity). Fugacity = pressure * phi / 1 atm.
  For ideal gases, phi = 1.

Initial solution 73.	NEP22-13

WARNING: Equivalent wt for alkalinity should be Ca.5(CO3).5. Using 50.0455 g/eq.
-----------------------------Solution composition------------------------------

	Elements           Molality       Moles

	Alkalinity        3.144e-03   3.144e-03
	Ca                3.935e-05   3.935e-05
	Cl                9.030e-06   9.030e-06
	Fe                3.786e-08   3.786e-08
	K                 9.873e-06   9.873e-06
	Mg                1.090e-05   1.090e-05
	Mn                4.005e-09   4.005e-09
	Na                7.311e-05   7.311e-05
	S(6)              1.591e-06   1.591e-06
	Si                8.812e-05   8.812e-05

----------------------------Description of solution----------------------------

                                       pH  =   6.760    
                                       pe  =   4.000    
      Specific Conductance (µS/cm,  15°C)  = 111
                          Density (g/cm³)  =   0.99924
                               Volume (L)  =   1.00103
                        Viscosity (mPa s)  =   1.13937
                        Activity of water  =   1.000
                 Ionic strength (mol/kgw)  =   1.722e-03
                       Mass of water (kg)  =   1.000e+00
                    Total carbon (mol/kg)  =   4.513e-03
                       Total CO2 (mol/kg)  =   4.513e-03
                         Temperature (°C)  =  15.00
                  Electrical balance (eq)  =  -2.973e-03
 Percent error, 100*(Cat-|An|)/(Cat+|An|)  = -89.04
                               Iterations  =  10 (38 overall)
                                  Total H  = 1.110159e+02
                                  Total O  = 5.551875e+01

----------------------------Distribution of species----------------------------

                                               Log       Log       Log    mole V
   Species          Molality    Activity  Molality  Activity     Gamma   cm³/mol

   H+              1.814e-07   1.738e-07    -6.741    -6.760    -0.019      0.00
   OH-             2.732e-08   2.610e-08    -7.563    -7.583    -0.020     -4.62
   H2O             5.551e+01   9.999e-01     1.744    -0.000     0.000     18.03
C(4)          4.513e-03
   HCO3-           3.142e-03   3.005e-03    -2.503    -2.522    -0.019     23.58
   CO2             1.369e-03   1.370e-03    -2.863    -2.863     0.000     33.93
   CO3-2           7.709e-07   6.448e-07    -6.113    -6.191    -0.078     -5.22
   MgHCO3+         3.152e-07   3.012e-07    -6.501    -6.521    -0.020      5.14
   CaHCO3+         2.501e-07   2.392e-07    -6.602    -6.621    -0.019    122.20
   NaHCO3          1.360e-07   1.361e-07    -6.867    -6.866     0.000     31.82
   CaCO3           3.010e-08   3.011e-08    -7.521    -7.521     0.000    -14.63
   (CO2)2          2.427e-08   2.428e-08    -7.615    -7.615     0.000     67.86
   KHCO3           1.069e-08   1.069e-08    -7.971    -7.971     0.000     40.95
   FeHCO3+         7.700e-09   7.358e-09    -8.114    -8.133    -0.020     (0)  
   MgCO3           4.673e-09   4.675e-09    -8.330    -8.330     0.000    -17.08
   MnHCO3+         7.354e-10   7.031e-10    -9.133    -9.153    -0.019     (0)  
   FeCO3           3.786e-10   3.787e-10    -9.422    -9.422     0.000     (0)  
   MnCO3           1.344e-10   1.345e-10    -9.872    -9.871     0.000     (0)  
Ca            3.935e-05
   Ca+2            3.906e-05   3.266e-05    -4.408    -4.486    -0.078    -18.27
   CaHCO3+         2.501e-07   2.392e-07    -6.602    -6.621    -0.019    122.20
   CaCO3           3.010e-08   3.011e-08    -7.521    -7.521     0.000    -14.63
   CaSO4           7.091e-09   7.094e-09    -8.149    -8.149     0.000      7.06
   CaOH+           3.264e-11   3.119e-11   -10.486   -10.506    -0.020     (0)  
   CaHSO4+         7.436e-15   7.106e-15   -14.129   -14.148    -0.020     (0)  
Cl            9.030e-06
   Cl-             9.030e-06   8.628e-06    -5.044    -5.064    -0.020     17.68
   HCl             5.486e-13   5.496e-13   -12.261   -12.260     0.001     (0)  
   FeCl+           3.052e-13   2.916e-13   -12.515   -12.535    -0.020     (0)  
   MnCl+           9.651e-14   9.227e-14   -13.015   -13.035    -0.019     -6.09
   MnCl2           3.474e-19   3.475e-19   -18.459   -18.459     0.000    100.17
   FeCl+2          2.979e-21   2.490e-21   -20.526   -20.604    -0.078     (0)  
   MnCl3-          8.637e-25   8.257e-25   -24.064   -24.083    -0.019     43.71
   FeCl2+          1.393e-25   1.332e-25   -24.856   -24.876    -0.019     (0)  
   FeCl3           1.149e-31   1.149e-31   -30.940   -30.940     0.000     (0)  
Fe(2)         3.734e-08
   Fe+2            2.924e-08   2.449e-08    -7.534    -7.611    -0.077    -22.83
   FeHCO3+         7.700e-09   7.358e-09    -8.114    -8.133    -0.020     (0)  
   FeCO3           3.786e-10   3.787e-10    -9.422    -9.422     0.000     (0)  
   FeOH+           2.151e-11   2.056e-11   -10.667   -10.687    -0.019     (0)  
   FeSO4           4.755e-12   4.757e-12   -11.323   -11.323     0.000     31.17
   FeCl+           3.052e-13   2.916e-13   -12.515   -12.535    -0.020     (0)  
   Fe(OH)2         4.093e-16   4.095e-16   -15.388   -15.388     0.000     (0)  
   FeHSO4+         5.575e-18   5.327e-18   -17.254   -17.273    -0.020     (0)  
   Fe(OH)3-        8.271e-20   7.908e-20   -19.082   -19.102    -0.019     (0)  
Fe(3)         5.243e-10
   Fe(OH)2+        3.606e-10   3.448e-10    -9.443    -9.462    -0.019     (0)  
   Fe(OH)3         1.628e-10   1.628e-10    -9.788    -9.788     0.000     (0)  
   Fe(OH)4-        5.895e-13   5.637e-13   -12.230   -12.249    -0.019     (0)  
   FeOH+2          3.207e-13   2.680e-13   -12.494   -12.572    -0.078     (0)  
   Fe+3            1.948e-17   1.326e-17   -16.710   -16.877    -0.167     (0)  
   FeSO4+          1.597e-19   1.527e-19   -18.797   -18.816    -0.019     (0)  
   FeCl+2          2.979e-21   2.490e-21   -20.526   -20.604    -0.078     (0)  
   Fe2(OH)2+4      6.131e-24   2.964e-24   -23.212   -23.528    -0.316     (0)  
   Fe(SO4)2-       4.431e-24   4.234e-24   -23.354   -23.373    -0.020     (0)  
   FeCl2+          1.393e-25   1.332e-25   -24.856   -24.876    -0.019     (0)  
   FeHSO4+2        8.693e-26   7.249e-26   -25.061   -25.140    -0.079     (0)  
   Fe3(OH)4+5      1.727e-30   5.548e-31   -29.763   -30.256    -0.493     (0)  
   FeCl3           1.149e-31   1.149e-31   -30.940   -30.940     0.000     (0)  
H(0)          4.738e-25
   H2              2.369e-25   2.370e-25   -24.625   -24.625     0.000     28.62
K             9.873e-06
   K+              9.862e-06   9.422e-06    -5.006    -5.026    -0.020      8.64
   KHCO3           1.069e-08   1.069e-08    -7.971    -7.971     0.000     40.95
   KSO4-           1.919e-10   1.836e-10    -9.717    -9.736    -0.019     13.10
Mg            1.090e-05
   Mg+2            1.058e-05   8.859e-06    -4.975    -5.053    -0.077    -21.41
   MgHCO3+         3.152e-07   3.012e-07    -6.501    -6.521    -0.020      5.14
   MgCO3           4.673e-09   4.675e-09    -8.330    -8.330     0.000    -17.08
   MgSO4           2.363e-09   2.364e-09    -8.627    -8.626     0.000    -11.92
   MgOH+           7.598e-11   7.271e-11   -10.119   -10.138    -0.019     (0)  
   Mg(SO4)2-2      1.484e-14   1.246e-14   -13.829   -13.905    -0.076     -4.05
Mn(2)         4.005e-09
   Mn+2            3.135e-09   2.625e-09    -8.504    -8.581    -0.077    -21.05
   MnHCO3+         7.354e-10   7.031e-10    -9.133    -9.153    -0.019     (0)  
   MnCO3           1.344e-10   1.345e-10    -9.872    -9.871     0.000     (0)  
   MnSO4           5.056e-13   5.058e-13   -12.296   -12.296     0.000     27.69
   MnOH+           1.747e-13   1.671e-13   -12.758   -12.777    -0.019     (0)  
   MnCl+           9.651e-14   9.227e-14   -13.015   -13.035    -0.019     -6.09
   MnCl2           3.474e-19   3.475e-19   -18.459   -18.459     0.000    100.17
   Mn(OH)3-        8.290e-24   7.926e-24   -23.081   -23.101    -0.019     (0)  
   MnCl3-          8.637e-25   8.257e-25   -24.064   -24.083    -0.019     43.71
Mn(3)         2.629e-31
   Mn+3            2.629e-31   1.790e-31   -30.580   -30.747    -0.167     (0)  
Na            7.311e-05
   Na+             7.298e-05   6.976e-05    -4.137    -4.156    -0.020     -2.08
   NaHCO3          1.360e-07   1.361e-07    -6.867    -6.866     0.000     31.82
   NaSO4-          1.423e-09   1.360e-09    -8.847    -8.866    -0.019    -22.04
   NaOH            1.820e-22   1.821e-22   -21.740   -21.740     0.000     (0)  
O(0)          0.000e+00
   O2              0.000e+00   0.000e+00   -46.469   -46.469     0.000     29.51
S(6)          1.591e-06
   SO4-2           1.580e-06   1.320e-06    -5.801    -5.879    -0.078     14.34
   CaSO4           7.091e-09   7.094e-09    -8.149    -8.149     0.000      7.06
   MgSO4           2.363e-09   2.364e-09    -8.627    -8.626     0.000    -11.92
   NaSO4-          1.423e-09   1.360e-09    -8.847    -8.866    -0.019    -22.04
   KSO4-           1.919e-10   1.836e-10    -9.717    -9.736    -0.019     13.10
   HSO4-           1.894e-11   1.810e-11   -10.723   -10.742    -0.020     39.46
   FeSO4           4.755e-12   4.757e-12   -11.323   -11.323     0.000     31.17
   MnSO4           5.056e-13   5.058e-13   -12.296   -12.296     0.000     27.69
   Mg(SO4)2-2      1.484e-14   1.246e-14   -13.829   -13.905    -0.076     -4.05
   CaHSO4+         7.436e-15   7.106e-15   -14.129   -14.148    -0.020     (0)  
   FeHSO4+         5.575e-18   5.327e-18   -17.254   -17.273    -0.020     (0)  
   FeSO4+          1.597e-19   1.527e-19   -18.797   -18.816    -0.019     (0)  
   Fe(SO4)2-       4.431e-24   4.234e-24   -23.354   -23.373    -0.020     (0)  
   FeHSO4+2        8.693e-26   7.249e-26   -25.061   -25.140    -0.079     (0)  
Si            8.812e-05
   H4SiO4          8.807e-05   8.810e-05    -4.055    -4.055     0.000     53.05
   H3SiO4-         5.395e-08   5.155e-08    -7.268    -7.288    -0.020     27.65
   H2SiO4-2        1.209e-14   1.011e-14   -13.918   -13.995    -0.078     (0)  

------------------------------Saturation indices-------------------------------

  Phase               SI** log IAP   log K(288 K,   1 atm)

  Anhydrite        -6.19    -10.37   -4.17  CaSO4
  Aragonite        -2.40    -10.68   -8.28  CaCO3
  Arcanite        -13.91    -15.93   -2.02  K2SO4
  Calcite          -2.25    -10.68   -8.42  CaCO3
  Chalcedony       -0.38     -4.05   -3.67  SiO2
  Chrysotile      -16.19     17.29   33.48  Mg3Si2O5(OH)4
  CO2(g)           -1.52     -2.86   -1.34  CO2
  Dolomite         -4.98    -21.92  -16.94  CaMg(CO3)2
  Epsomite         -9.13    -10.93   -1.80  MgSO4:7H2O
  Fe(OH)3(a)       -1.49      3.40    4.89  Fe(OH)3
  Goethite          4.03      3.40   -0.63  FeOOH
  Gypsum           -5.78    -10.37   -4.59  CaSO4:2H2O
  H2(g)           -21.55    -24.63   -3.07  H2
  H2O(g)           -1.77     -0.00    1.77  H2O
  Halite          -10.78     -9.22    1.56  NaCl
  Hausmannite     -27.25     36.34   63.59  Mn3O4
  Hematite         10.03      6.81   -3.22  Fe2O3
  Hexahydrite      -9.35    -10.93   -1.58  MgSO4:6H2O
  Jarosite-K      -18.44    -26.86   -8.41  KFe3(SO4)2(OH)6
  Kieserite        -9.69    -10.93   -1.25  MgSO4:H2O
  Manganite        -9.64     15.70   25.34  MnOOH
  Melanterite     -11.15    -13.49   -2.34  FeSO4:7H2O
  Mirabilite      -12.49    -14.19   -1.71  Na2SO4:10H2O
  O2(g)           -43.66    -46.47   -2.81  O2
  Pyrochroite     -10.26      4.94   15.20  Mn(OH)2
  Pyrolusite      -16.58     26.46   43.04  MnO2:H2O
  Quartz            0.08     -4.05   -4.13  SiO2
  Rhodochrosite    -3.68    -14.77  -11.09  MnCO3
  Sepiolite       -11.26      4.77   16.03  Mg2Si3O7.5OH:3H2O
  Sepiolite(d)    -13.89      4.77   18.66  Mg2Si3O7.5OH:3H2O
  Siderite         -2.97    -13.80  -10.83  FeCO3
  SiO2(a)          -1.26     -4.05   -2.80  SiO2
  Sylvite         -10.94    -10.09    0.85  KCl
  Talc            -13.40      9.18   22.58  Mg3Si4O10(OH)2
  Thenardite      -13.94    -14.19   -0.25  Na2SO4

**For a gas, SI = log10(fugacity). Fugacity = pressure * phi / 1 atm.
  For ideal gases, phi = 1.

Initial solution 75.	NEP22-15

WARNING: Equivalent wt for alkalinity should be Ca.5(CO3).5. Using 50.0455 g/eq.
-----------------------------Solution composition------------------------------

	Elements           Molality       Moles

	Alkalinity        5.006e-03   5.006e-03
	Ca                8.178e-05   8.178e-05
	Cl                4.977e-06   4.977e-06
	Fe                4.969e-08   4.969e-08
	K                 1.175e-05   1.175e-05
	Mg                1.605e-05   1.605e-05
	Mn                4.006e-09   4.006e-09
	Na                1.095e-04   1.095e-04
	S(6)              2.680e-06   2.680e-06
	Si                1.130e-04   1.130e-04

----------------------------Description of solution----------------------------

                                       pH  =   7.290    
                                       pe  =   4.000    
      Specific Conductance (µS/cm,  15°C)  = 174
                          Density (g/cm³)  =   0.99937
                               Volume (L)  =   1.00099
                        Viscosity (mPa s)  =   1.15246
                        Activity of water  =   1.000
                 Ionic strength (mol/kgw)  =   2.767e-03
                       Mass of water (kg)  =   1.000e+00
                    Total carbon (mol/kg)  =   5.642e-03
                       Total CO2 (mol/kg)  =   5.642e-03
                         Temperature (°C)  =  14.60
                  Electrical balance (eq)  =  -4.700e-03
 Percent error, 100*(Cat-|An|)/(Cat+|An|)  = -88.20
                               Iterations  =   8 (46 overall)
                                  Total H  = 1.110179e+02
                                  Total O  = 5.552296e+01

----------------------------Distribution of species----------------------------

                                               Log       Log       Log    mole V
   Species          Molality    Activity  Molality  Activity     Gamma   cm³/mol

   OH-             9.054e-08   8.550e-08    -7.043    -7.068    -0.025     -4.63
   H+              5.406e-08   5.129e-08    -7.267    -7.290    -0.023      0.00
   H2O             5.551e+01   9.999e-01     1.744    -0.000     0.000     18.03
C(4)          5.642e-03
   HCO3-           4.995e-03   4.725e-03    -2.301    -2.326    -0.024     23.54
   CO2             6.402e-04   6.405e-04    -3.194    -3.193     0.000     33.91
   CO3-2           4.246e-06   3.400e-06    -5.372    -5.469    -0.097     -5.25
   CaHCO3+         7.711e-07   7.298e-07    -6.113    -6.137    -0.024    122.18
   MgHCO3+         6.945e-07   6.561e-07    -6.158    -6.183    -0.025      5.14
   NaHCO3          3.124e-07   3.128e-07    -6.505    -6.505     0.001     31.82
   CaCO3           3.123e-07   3.125e-07    -6.505    -6.505     0.000    -14.64
   MgCO3           3.395e-08   3.397e-08    -7.469    -7.469     0.000    -17.08
   KHCO3           1.963e-08   1.963e-08    -7.707    -7.707     0.000     40.95
   FeHCO3+         1.113e-08   1.052e-08    -7.953    -7.978    -0.025     (0)  
   (CO2)2          5.226e-09   5.229e-09    -8.282    -8.282     0.000     67.82
   FeCO3           1.814e-09   1.816e-09    -8.741    -8.741     0.000     (0)  
   MnHCO3+         9.091e-10   8.597e-10    -9.041    -9.066    -0.024     (0)  
   MnCO3           5.510e-10   5.513e-10    -9.259    -9.259     0.000     (0)  
Ca            8.178e-05
   Ca+2            8.067e-05   6.457e-05    -4.093    -4.190    -0.097    -18.25
   CaHCO3+         7.711e-07   7.298e-07    -6.113    -6.137    -0.024    122.18
   CaCO3           3.123e-07   3.125e-07    -6.505    -6.505     0.000    -14.64
   CaSO4           2.241e-08   2.242e-08    -7.650    -7.649     0.000      7.04
   CaOH+           2.211e-10   2.089e-10    -9.655    -9.680    -0.025     (0)  
   CaHSO4+         6.982e-15   6.597e-15   -14.156   -14.181    -0.025     (0)  
Cl            4.977e-06
   Cl-             4.977e-06   4.701e-06    -5.303    -5.328    -0.025     17.67
   FeCl+           1.529e-13   1.445e-13   -12.816   -12.840    -0.025     (0)  
   HCl             8.835e-14   8.859e-14   -13.054   -13.053     0.001     (0)  
   MnCl+           4.134e-14   3.909e-14   -13.384   -13.408    -0.024     -6.23
   MnCl2           8.017e-20   8.022e-20   -19.096   -19.096     0.000    100.84
   FeCl+2          1.486e-21   1.188e-21   -20.828   -20.925    -0.097     (0)  
   MnCl3-          1.098e-25   1.039e-25   -24.959   -24.984    -0.024     43.74
   FeCl2+          3.713e-26   3.511e-26   -25.430   -25.455    -0.024     (0)  
   FeCl3           1.649e-32   1.651e-32   -31.783   -31.782     0.000     (0)  
Fe(2)         4.076e-08
   Fe+2            2.774e-08   2.226e-08    -7.557    -7.652    -0.096    -22.83
   FeHCO3+         1.113e-08   1.052e-08    -7.953    -7.978    -0.025     (0)  
   FeCO3           1.814e-09   1.816e-09    -8.741    -8.741     0.000     (0)  
   FeOH+           6.488e-11   6.135e-11   -10.188   -10.212    -0.024     (0)  
   FeSO4           6.878e-12   6.882e-12   -11.163   -11.162     0.000     31.74
   FeCl+           1.529e-13   1.445e-13   -12.816   -12.840    -0.025     (0)  
   Fe(OH)2         3.985e-15   3.988e-15   -14.400   -14.399     0.000     (0)  
   Fe(OH)3-        2.748e-18   2.598e-18   -17.561   -17.585    -0.024     (0)  
   FeHSO4+         2.407e-18   2.274e-18   -17.618   -17.643    -0.025     (0)  
Fe(3)         8.924e-09
   Fe(OH)3         5.293e-09   5.296e-09    -8.276    -8.276     0.000     (0)  
   Fe(OH)2+        3.566e-09   3.373e-09    -8.448    -8.472    -0.024     (0)  
   Fe(OH)4-        6.456e-11   6.107e-11   -10.190   -10.214    -0.024     (0)  
   FeOH+2          9.833e-13   7.862e-13   -12.007   -12.104    -0.097     (0)  
   Fe+3            1.891e-17   1.178e-17   -16.723   -16.929    -0.206     (0)  
   FeSO4+          2.278e-19   2.154e-19   -18.642   -18.667    -0.024     (0)  
   FeCl+2          1.486e-21   1.188e-21   -20.828   -20.925    -0.097     (0)  
   Fe2(OH)2+4      6.438e-23   2.597e-23   -22.191   -22.586    -0.394     (0)  
   Fe(SO4)2-       1.012e-23   9.566e-24   -22.995   -23.019    -0.025     (0)  
   FeHSO4+2        3.793e-26   3.023e-26   -25.421   -25.520    -0.099     (0)  
   FeCl2+          3.713e-26   3.511e-26   -25.430   -25.455    -0.024     (0)  
   Fe3(OH)4+5      2.043e-28   4.947e-29   -27.690   -28.306    -0.616     (0)  
   FeCl3           1.649e-32   1.651e-32   -31.783   -31.782     0.000     (0)  
H(0)          4.143e-26
   H2              2.072e-26   2.073e-26   -25.684   -25.683     0.000     28.62
K             1.175e-05
   K+              1.173e-05   1.108e-05    -4.931    -4.955    -0.025      8.63
   KHCO3           1.963e-08   1.963e-08    -7.707    -7.707     0.000     40.95
   KSO4-           3.654e-10   3.461e-10    -9.437    -9.461    -0.024     13.06
Mg            1.605e-05
   Mg+2            1.532e-05   1.228e-05    -4.815    -4.911    -0.096    -21.36
   MgHCO3+         6.945e-07   6.561e-07    -6.158    -6.183    -0.025      5.14
   MgCO3           3.395e-08   3.397e-08    -7.469    -7.469     0.000    -17.08
   MgSO4           5.198e-09   5.205e-09    -8.284    -8.284     0.001    -12.11
   MgOH+           3.471e-10   3.286e-10    -9.460    -9.483    -0.024     (0)  
   Mg(SO4)2-2      5.505e-14   4.433e-14   -13.259   -13.353    -0.094     -1.82
Mn(2)         4.006e-09
   Mn+2            2.544e-09   2.041e-09    -8.594    -8.690    -0.096    -20.83
   MnHCO3+         9.091e-10   8.597e-10    -9.041    -9.066    -0.024     (0)  
   MnCO3           5.510e-10   5.513e-10    -9.259    -9.259     0.000     (0)  
   MnSO4           6.253e-13   6.257e-13   -12.204   -12.204     0.000     27.93
   MnOH+           4.495e-13   4.250e-13   -12.347   -12.372    -0.024     (0)  
   MnCl+           4.134e-14   3.909e-14   -13.384   -13.408    -0.024     -6.23
   MnCl2           8.017e-20   8.022e-20   -19.096   -19.096     0.000    100.84
   Mn(OH)3-        2.536e-22   2.398e-22   -21.596   -21.620    -0.024     (0)  
   MnCl3-          1.098e-25   1.039e-25   -24.959   -24.984    -0.024     43.74
Mn(3)         2.099e-31
   Mn+3            2.099e-31   1.308e-31   -30.678   -30.884    -0.206     (0)  
Na            1.095e-04
   Na+             1.092e-04   1.032e-04    -3.962    -3.986    -0.024     -2.09
   NaHCO3          3.124e-07   3.128e-07    -6.505    -6.505     0.001     31.82
   NaSO4-          3.398e-09   3.215e-09    -8.469    -8.493    -0.024    -21.03
   NaOH            8.822e-22   8.828e-22   -21.054   -21.054     0.000     (0)  
O(0)          0.000e+00
   O2              0.000e+00   0.000e+00   -44.491   -44.491     0.000     29.46
S(6)          2.680e-06
   SO4-2           2.648e-06   2.117e-06    -5.577    -5.674    -0.097     14.64
   CaSO4           2.241e-08   2.242e-08    -7.650    -7.649     0.000      7.04
   MgSO4           5.198e-09   5.205e-09    -8.284    -8.284     0.001    -12.11
   NaSO4-          3.398e-09   3.215e-09    -8.469    -8.493    -0.024    -21.03
   KSO4-           3.654e-10   3.461e-10    -9.437    -9.461    -0.024     13.06
   HSO4-           8.994e-12   8.498e-12   -11.046   -11.071    -0.025     39.43
   FeSO4           6.878e-12   6.882e-12   -11.163   -11.162     0.000     31.74
   MnSO4           6.253e-13   6.257e-13   -12.204   -12.204     0.000     27.93
   Mg(SO4)2-2      5.505e-14   4.433e-14   -13.259   -13.353    -0.094     -1.82
   CaHSO4+         6.982e-15   6.597e-15   -14.156   -14.181    -0.025     (0)  
   FeHSO4+         2.407e-18   2.274e-18   -17.618   -17.643    -0.025     (0)  
   FeSO4+          2.278e-19   2.154e-19   -18.642   -18.667    -0.024     (0)  
   Fe(SO4)2-       1.012e-23   9.566e-24   -22.995   -23.019    -0.025     (0)  
   FeHSO4+2        3.793e-26   3.023e-26   -25.421   -25.520    -0.099     (0)  
Si            1.130e-04
   H4SiO4          1.128e-04   1.129e-04    -3.948    -3.947     0.000     53.10
   H3SiO4-         2.331e-07   2.203e-07    -6.632    -6.657    -0.025     27.64
   H2SiO4-2        1.775e-13   1.421e-13   -12.751   -12.847    -0.097     (0)  

------------------------------Saturation indices-------------------------------

  Phase               SI** log IAP   log K(287 K,   1 atm)

  Anhydrite        -5.70     -9.86   -4.17  CaSO4
  Aragonite        -1.38     -9.66   -8.28  CaCO3
  Arcanite        -13.55    -15.59   -2.03  K2SO4
  Calcite          -1.24     -9.66   -8.42  CaCO3
  Chalcedony       -0.27     -3.95   -3.68  SiO2
  Chrysotile      -12.42     21.11   33.54  Mg3Si2O5(OH)4
  CO2(g)           -1.86     -3.19   -1.34  CO2
  Dolomite         -3.11    -20.04  -16.93  CaMg(CO3)2
  Epsomite         -8.78    -10.59   -1.80  MgSO4:7H2O
  Fe(OH)3(a)        0.05      4.94    4.89  Fe(OH)3
  Goethite          5.56      4.94   -0.62  FeOOH
  Gypsum           -5.27     -9.86   -4.59  CaSO4:2H2O
  H2(g)           -22.61    -25.68   -3.07  H2
  H2O(g)           -1.78     -0.00    1.78  H2O
  Halite          -10.88     -9.31    1.56  NaCl
  Hausmannite     -23.45     40.25   63.70  Mn3O4
  Hematite         13.07      9.88   -3.19  Fe2O3
  Hexahydrite      -9.00    -10.59   -1.58  MgSO4:6H2O
  Jarosite-K      -14.97    -23.35   -8.38  KFe3(SO4)2(OH)6
  Kieserite        -9.33    -10.58   -1.25  MgSO4:H2O
  Manganite        -8.16     17.18   25.34  MnOOH
  Melanterite     -10.98    -13.33   -2.34  FeSO4:7H2O
  Mirabilite      -11.92    -13.65   -1.73  Na2SO4:10H2O
  O2(g)           -41.68    -44.49   -2.81  O2
  Pyrochroite      -9.31      5.89   15.20  Mn(OH)2
  Pyrolusite      -14.64     28.47   43.10  MnO2:H2O
  Quartz            0.19     -3.95   -4.14  SiO2
  Rhodochrosite    -3.07    -14.16  -11.09  MnCO3
  Sepiolite        -8.55      7.50   16.04  Mg2Si3O7.5OH:3H2O
  Sepiolite(d)    -11.16      7.50   18.66  Mg2Si3O7.5OH:3H2O
  Siderite         -2.30    -13.12  -10.82  FeCO3
  SiO2(a)          -1.15     -3.95   -2.80  SiO2
  Sylvite         -11.13    -10.28    0.85  KCl
  Talc             -9.41     13.22   22.63  Mg3Si4O10(OH)2
  Thenardite      -13.40    -13.65   -0.25  Na2SO4

**For a gas, SI = log10(fugacity). Fugacity = pressure * phi / 1 atm.
  For ideal gases, phi = 1.

Initial solution 76.	NEP22-16

WARNING: Equivalent wt for alkalinity should be Ca.5(CO3).5. Using 50.0455 g/eq.
-----------------------------Solution composition------------------------------

	Elements           Molality       Moles

	Alkalinity        3.415e-03   3.415e-03
	Ca                3.432e-05   3.432e-05
	Cl                1.047e-06   1.047e-06
	Fe                3.416e-08   3.416e-08
	K                 7.994e-06   7.994e-06
	Mg                9.441e-06   9.441e-06
	Mn                5.462e-10   5.462e-10
	Na                4.485e-05   4.485e-05
	S(6)              1.183e-06   1.183e-06
	Si                8.446e-05   8.446e-05

----------------------------Description of solution----------------------------

                                       pH  =   7.140    
                                       pe  =   4.000    
      Specific Conductance (µS/cm,  12°C)  = 106
                          Density (g/cm³)  =   0.99967
                               Volume (L)  =   1.00057
                        Viscosity (mPa s)  =   1.24651
                        Activity of water  =   1.000
                 Ionic strength (mol/kgw)  =   1.825e-03
                       Mass of water (kg)  =   1.000e+00
                    Total carbon (mol/kg)  =   4.073e-03
                       Total CO2 (mol/kg)  =   4.073e-03
                         Temperature (°C)  =  11.70
                  Electrical balance (eq)  =  -3.277e-03
 Percent error, 100*(Cat-|An|)/(Cat+|An|)  = -92.14
                               Iterations  =   9 (55 overall)
                                  Total H  = 1.110162e+02
                                  Total O  = 5.551812e+01

----------------------------Distribution of species----------------------------

                                               Log       Log       Log    mole V
   Species          Molality    Activity  Molality  Activity     Gamma   cm³/mol

   H+              7.567e-08   7.244e-08    -7.121    -7.140    -0.019      0.00
   OH-             4.942e-08   4.716e-08    -7.306    -7.326    -0.020     -4.86
   H2O             5.551e+01   9.999e-01     1.744    -0.000     0.000     18.02
C(4)          4.073e-03
   HCO3-           3.410e-03   3.258e-03    -2.467    -2.487    -0.020     23.13
   CO2             6.609e-04   6.611e-04    -3.180    -3.180     0.000     33.75
   CO3-2           1.842e-06   1.535e-06    -5.735    -5.814    -0.079     -5.84
   MgHCO3+         2.925e-07   2.792e-07    -6.534    -6.554    -0.020      5.00
   CaHCO3+         2.016e-07   1.927e-07    -6.695    -6.715    -0.020    122.01
   NaHCO3          8.161e-08   8.168e-08    -7.088    -7.088     0.000     31.84
   CaCO3           6.021e-08   6.023e-08    -7.220    -7.220     0.000    -14.65
   MgCO3           9.095e-09   9.099e-09    -8.041    -8.041     0.000    -17.07
   KHCO3           8.846e-09   8.846e-09    -8.053    -8.053     0.000     40.93
   FeHCO3+         6.965e-09   6.649e-09    -8.157    -8.177    -0.020     (0)  
   (CO2)2          4.990e-09   4.992e-09    -8.302    -8.302     0.000     67.51
   FeCO3           7.511e-10   7.514e-10    -9.124    -9.124     0.000     (0)  
   MnHCO3+         1.022e-10   9.760e-11    -9.991   -10.011    -0.020     (0)  
   MnCO3           4.096e-11   4.098e-11   -10.388   -10.387     0.000     (0)  
Ca            3.432e-05
   Ca+2            3.406e-05   2.837e-05    -4.468    -4.547    -0.079    -18.36
   CaHCO3+         2.016e-07   1.927e-07    -6.695    -6.715    -0.020    122.01
   CaCO3           6.021e-08   6.023e-08    -7.220    -7.220     0.000    -14.65
   CaSO4           4.445e-09   4.447e-09    -8.352    -8.352     0.000      6.89
   CaOH+           6.807e-11   6.498e-11   -10.167   -10.187    -0.020     (0)  
   CaHSO4+         1.873e-15   1.788e-15   -14.727   -14.748    -0.020     (0)  
Cl            1.047e-06
   Cl-             1.047e-06   9.991e-07    -5.980    -6.000    -0.020     17.49
   FeCl+           2.949e-14   2.815e-14   -13.530   -13.551    -0.020     (0)  
   HCl             2.703e-14   2.708e-14   -13.568   -13.567     0.001     (0)  
   MnCl+           1.432e-15   1.368e-15   -14.844   -14.864    -0.020     -7.38
   MnCl2           5.965e-22   5.967e-22   -21.224   -21.224     0.000    105.98
   FeCl+2          2.120e-22   1.764e-22   -21.674   -21.753    -0.080     (0)  
   FeCl2+          1.281e-27   1.224e-27   -26.892   -26.912    -0.020     (0)  
   MnCl3-          1.719e-28   1.642e-28   -27.765   -27.785    -0.020     43.82
   FeCl3           1.222e-34   1.223e-34   -33.913   -33.913     0.000     (0)  
Fe(2)         3.222e-08
   Fe+2            2.446e-08   2.041e-08    -7.611    -7.690    -0.079    -23.12
   FeHCO3+         6.965e-09   6.649e-09    -8.157    -8.177    -0.020     (0)  
   FeCO3           7.511e-10   7.514e-10    -9.124    -9.124     0.000     (0)  
   FeOH+           3.296e-11   3.148e-11   -10.482   -10.502    -0.020     (0)  
   FeSO4           2.752e-12   2.754e-12   -11.560   -11.560     0.000     36.13
   FeCl+           2.949e-14   2.815e-14   -13.530   -13.551    -0.020     (0)  
   Fe(OH)2         1.102e-15   1.102e-15   -14.958   -14.958     0.000     (0)  
   FeHSO4+         1.348e-18   1.287e-18   -17.870   -17.891    -0.020     (0)  
   Fe(OH)3-        5.161e-19   4.929e-19   -18.287   -18.307    -0.020     (0)  
Fe(3)         1.947e-09
   Fe(OH)2+        1.007e-09   9.622e-10    -8.997    -9.017    -0.020     (0)  
   Fe(OH)3         9.322e-10   9.326e-10    -9.030    -9.030     0.000     (0)  
   Fe(OH)4-        7.023e-12   6.709e-12   -11.153   -11.173    -0.020     (0)  
   FeOH+2          4.289e-13   3.569e-13   -12.368   -12.447    -0.080     (0)  
   Fe+3            1.346e-17   9.090e-18   -16.871   -17.041    -0.171     (0)  
   FeSO4+          7.504e-20   7.167e-20   -19.125   -19.145    -0.020     (0)  
   FeCl+2          2.120e-22   1.764e-22   -21.674   -21.753    -0.080     (0)  
   Fe2(OH)2+4      1.282e-23   6.096e-24   -22.892   -23.215    -0.323     (0)  
   Fe(SO4)2-       1.522e-24   1.453e-24   -23.818   -23.838    -0.020     (0)  
   FeHSO4+2        1.733e-26   1.439e-26   -25.761   -25.842    -0.081     (0)  
[...]

**For a gas, SI = log10(fugacity). Fugacity = pressure * phi / 1 atm.
  For ideal gases, phi = 1.

Initial solution 215.	NEP23-26

WARNING: Equivalent wt for alkalinity should be Ca.5(CO3).5. Using 50.0455 g/eq.
-----------------------------Solution composition------------------------------

	Elements           Molality       Moles

	Alkalinity              nan         nan
	Ca                      nan         nan
	Cl                      nan         nan
	Fe                      nan         nan
	K                       nan         nan
	Mg                      nan         nan
	Mn                      nan         nan
	Na                      nan         nan
	S(6)                    nan         nan
	Si                      nan         nan

----------------------------Description of solution----------------------------

                                       pH  =   7.040    
                                       pe  =   4.000    
                          Density (g/cm³)  =   0.99765
                               Volume (L)  =       nan
                        Viscosity (mPa s)  =       nan
                        Activity of water  =   1.000
                 Ionic strength (mol/kgw)  =         nan
                       Mass of water (kg)  =   1.000e+00
                    Total carbon (mol/kg)  =         nan
                       Total CO2 (mol/kg)  =         nan
                         Temperature (°C)  =  22.50
                  Electrical balance (eq)  =         nan
 Percent error, 100*(Cat-|An|)/(Cat+|An|)  =    nan
                               Iterations  =   0 (168 overall)
                                  Total H  = nan
                                  Total O  = nan

----------------------------Distribution of species----------------------------

                                               Log       Log       Log    mole V
   Species          Molality    Activity  Molality  Activity     Gamma   cm³/mol

   H2O             5.551e+01   1.000e+00     1.744     0.000     0.000     18.06
C(4)                nan
Ca                  nan
Cl                  nan
Fe(2)               nan
Fe(3)               nan
H(0)                nan
K                   nan
Mg                  nan
Mn(2)               nan
Mn(3)               nan
Na                  nan
O(0)                nan
S(6)                nan
Si                  nan

------------------------------Saturation indices-------------------------------

  Phase               SI** log IAP   log K(295 K,   1 atm)

  Anhydrite          nan       nan   -4.25  CaSO4
  Aragonite          nan       nan   -8.32  CaCO3
  Arcanite           nan       nan   -1.91  K2SO4
  Calcite            nan       nan   -8.46  CaCO3
  Chalcedony         nan       nan   -3.58  SiO2
  Chrysotile         nan       nan   32.51  Mg3Si2O5(OH)4
  CO2(g)             nan       nan   -1.44  CO2
  Dolomite           nan       nan  -17.04  CaMg(CO3)2
  Epsomite           nan       nan   -1.75  MgSO4:7H2O
  Fe(OH)3(a)         nan       nan    4.89  Fe(OH)3
  Goethite           nan       nan   -0.91  FeOOH
  Gypsum             nan       nan   -4.58  CaSO4:2H2O
  H2(g)              nan       nan   -3.09  H2
  H2O(g)           -1.57      0.00    1.57  H2O
  Halite             nan       nan    1.57  NaCl
  Hausmannite        nan       nan   61.65  Mn3O4
  Hematite           nan       nan   -3.82  Fe2O3
  Hexahydrite        nan       nan   -1.57  MgSO4:6H2O
  Jarosite-K         nan       nan   -9.02  KFe3(SO4)2(OH)6
  Kieserite          nan       nan   -1.18  MgSO4:H2O
  Manganite          nan       nan   25.34  MnOOH
  Melanterite        nan       nan   -2.24  FeSO4:7H2O
  Mirabilite         nan       nan   -1.35  Na2SO4:10H2O
  O2(g)              nan       nan   -2.87  O2
  Pyrochroite        nan       nan   15.20  Mn(OH)2
  Pyrolusite         nan       nan   41.78  MnO2:H2O
  Quartz             nan       nan   -4.02  SiO2
  Rhodochrosite      nan       nan  -11.12  MnCO3
  Sepiolite          nan       nan   15.83  Mg2Si3O7.5OH:3H2O
  Sepiolite(d)       nan       nan   18.66  Mg2Si3O7.5OH:3H2O
  Siderite           nan       nan  -10.87  FeCO3
  SiO2(a)            nan       nan   -2.73  SiO2
  Sylvite            nan       nan    0.89  KCl
  Talc               nan       nan   21.69  Mg3Si4O10(OH)2
  Thenardite         nan       nan   -0.29  Na2SO4

**For a gas, SI = log10(fugacity). Fugacity = pressure * phi / 1 atm.
  For ideal gases, phi = 1.

-----------------------------------------
Beginning of batch-reaction calculations.
-----------------------------------------

Reaction step 1.

WARNING: Element Al is contained in Albite (which has 0.0 mass),	
but is not in solution or other phases.
WARNING: Element Al is contained in Anorthite (which has 0.0 mass),	
but is not in solution or other phases.
WARNING: Element Al is contained in Gibbsite (which has 0.0 mass),	
but is not in solution or other phases.
WARNING: Element Al is contained in Illite (which has 0.0 mass),	
but is not in solution or other phases.
WARNING: Element Al is contained in Kaolinite (which has 0.0 mass),	
but is not in solution or other phases.
Using solution 70.	NEP22-10
Using pure phase assemblage 1.	

-------------------------------Phase assemblage--------------------------------

                                                      Moles in assemblage
Phase               SI  log IAP  log K(T, P)   Initial       Final       Delta

Albite               Element not present.    0.000e+00           0   0.000e+00
Anhydrite        -7.20   -11.35     -4.15    0.000e+00           0   0.000e+00
Anorthite            Element not present.    0.000e+00           0   0.000e+00
Calcite          -2.70   -11.11     -8.41    0.000e+00           0   0.000e+00
Dolomite         -5.85   -22.76    -16.91    0.000e+00           0   0.000e+00
Gibbsite             Element not present.    0.000e+00           0   0.000e+00
Goethite         -0.97    -1.52     -0.55    0.000e+00           0   0.000e+00
Gypsum           -6.75   -11.35     -4.59    0.000e+00           0   0.000e+00
Halite          -10.47    -8.91      1.56    0.000e+00           0   0.000e+00
Hematite          0.00    -3.04     -3.04    0.000e+00   4.316e-11   4.316e-11
Illite               Element not present.    0.000e+00           0   0.000e+00
Kaolinite            Element not present.    0.000e+00           0   0.000e+00
Pyrite          -34.39   -53.22    -18.83    0.000e+00           0   0.000e+00
Quartz            0.00    -4.17     -4.17    0.000e+00   2.728e-05   2.728e-05
Siderite         -3.33   -14.14    -10.81    0.000e+00           0   0.000e+00

-----------------------------Solution composition------------------------------

	Elements           Molality       Moles

	C                 5.313e-03   5.313e-03
	Ca                3.214e-05   3.214e-05
	Cl                1.713e-05   1.713e-05
	Fe                3.709e-08   3.709e-08
	K                 8.534e-06   8.534e-06
	Mg                9.359e-06   9.359e-06
	Mn                2.785e-08   2.785e-08
	Na                7.920e-05   7.920e-05
	S                 1.992e-07   1.992e-07
	Si                6.795e-05   6.795e-05

----------------------------Description of solution----------------------------

                                       pH  =   6.480      Charge balance
                                       pe  =  -0.039      Adjusted to redox equilibrium
      Specific Conductance (µS/cm,  13°C)  = 95
                          Density (g/cm³)  =   0.99954
                               Volume (L)  =   1.00075
                        Viscosity (mPa s)  =   1.20877
                        Activity of water  =   1.000
                 Ionic strength (mol/kgw)  =   1.557e-03
                       Mass of water (kg)  =   1.000e+00
                 Total alkalinity (eq/kg)  =   2.844e-03
                       Total CO2 (mol/kg)  =   5.313e-03
                         Temperature (°C)  =  12.80
                  Electrical balance (eq)  =  -2.690e-03
 Percent error, 100*(Cat-|An|)/(Cat+|An|)  = -88.74
                               Iterations  =   8
                                  Total H  = 1.110157e+02
                                  Total O  = 5.552001e+01

----------------------------Distribution of species----------------------------

                                               Log       Log       Log    mole V
   Species          Molality    Activity  Molality  Activity     Gamma   cm³/mol

   H+              3.449e-07   3.311e-07    -6.462    -6.480    -0.018      0.00
   OH-             1.186e-08   1.135e-08    -7.926    -7.945    -0.019     -4.78
   H2O             5.551e+01   9.999e-01     1.744    -0.000     0.000     18.03
C(-4)         9.012e-29
   CH4             9.012e-29   9.015e-29   -28.045   -28.045     0.000     34.29
C(4)          5.313e-03
   HCO3-           2.843e-03   2.724e-03    -2.546    -2.565    -0.018     23.28
   CO2             2.470e-03   2.470e-03    -2.607    -2.607     0.000     33.81
   CO3-2           3.430e-07   2.894e-07    -6.465    -6.538    -0.074     -5.63
   MgHCO3+         2.465e-07   2.361e-07    -6.608    -6.627    -0.019      5.05
   CaHCO3+         1.684e-07   1.614e-07    -6.774    -6.792    -0.018    122.07
   NaHCO3          1.251e-07   1.252e-07    -6.903    -6.902     0.000     31.83
   (CO2)2          7.267e-08   7.269e-08    -7.139    -7.139     0.000     67.63
   CaCO3           1.090e-08   1.090e-08    -7.963    -7.962     0.000    -14.64
   KHCO3           8.081e-09   8.081e-09    -8.093    -8.093     0.000     40.94
   FeHCO3+         7.150e-09   6.848e-09    -8.146    -8.164    -0.019     (0)  
   MnHCO3+         4.834e-09   4.632e-09    -8.316    -8.334    -0.019     (0)  
   MgCO3           1.761e-09   1.762e-09    -8.754    -8.754     0.000    -17.08
   MnCO3           4.384e-10   4.385e-10    -9.358    -9.358     0.000     (0)  
   FeCO3           1.744e-10   1.745e-10    -9.758    -9.758     0.000     (0)  
Ca            3.214e-05
   Ca+2            3.196e-05   2.696e-05    -4.495    -4.569    -0.074    -18.33
   CaHCO3+         1.684e-07   1.614e-07    -6.774    -6.792    -0.018    122.07
   CaCO3           1.090e-08   1.090e-08    -7.963    -7.962     0.000    -14.64
   CaSO4           7.270e-10   7.273e-10    -9.138    -9.138     0.000      6.95
   CaOH+           1.411e-11   1.351e-11   -10.851   -10.869    -0.019     (0)  
   CaHSO4+         1.413e-15   1.353e-15   -14.850   -14.869    -0.019     (0)  
Cl            1.713e-05
   Cl-             1.713e-05   1.640e-05    -4.766    -4.785    -0.019     17.56
   HCl             2.015e-12   2.018e-12   -11.696   -11.695     0.001     (0)  
   MnCl+           1.330e-12   1.275e-12   -11.876   -11.895    -0.019     -6.94
   FeCl+           5.942e-13   5.691e-13   -12.226   -12.245    -0.019     (0)  
   MnCl2           9.122e-18   9.125e-18   -17.040   -17.040     0.000    103.97
   MnCl3-          4.302e-23   4.122e-23   -22.366   -22.385    -0.019     43.78
   FeCl+2          4.288e-25   3.615e-25   -24.368   -24.442    -0.074     (0)  
   FeCl2+          4.137e-29   3.964e-29   -28.383   -28.402    -0.019     (0)  
   FeCl3           6.500e-35   6.502e-35   -34.187   -34.187     0.000     (0)  
Fe(2)         3.709e-08
   Fe+2            2.975e-08   2.513e-08    -7.526    -7.600    -0.073    -23.03
   FeHCO3+         7.150e-09   6.848e-09    -8.146    -8.164    -0.019     (0)  
   FeCO3           1.744e-10   1.745e-10    -9.758    -9.758     0.000     (0)  
   FeOH+           9.682e-12   9.277e-12   -11.014   -11.033    -0.019     (0)  
   FeCl+           5.942e-13   5.691e-13   -12.226   -12.245    -0.019     (0)  
   FeSO4           5.909e-13   5.911e-13   -12.228   -12.228     0.000     34.41
   Fe(OH)2         7.884e-17   7.886e-17   -16.103   -16.103     0.000     (0)  
   FeHSO4+         1.317e-18   1.262e-18   -17.880   -17.899    -0.019     (0)  
   Fe(OH)3-        8.149e-21   7.809e-21   -20.089   -20.107    -0.019     (0)  
   Fe(HS)2         0.000e+00   0.000e+00   -57.156   -57.156     0.000     (0)  
   Fe(HS)3-        0.000e+00   0.000e+00   -84.354   -84.372    -0.019     (0)  
Fe(3)         7.889e-15
   Fe(OH)2+        6.486e-15   6.216e-15   -14.188   -14.206    -0.018     (0)  
   Fe(OH)3         1.388e-15   1.389e-15   -14.857   -14.857     0.000     (0)  
   FeOH+2          1.195e-17   1.007e-17   -16.923   -16.997    -0.074     (0)  
   Fe(OH)4-        2.394e-18   2.294e-18   -17.621   -17.639    -0.018     (0)  
   Fe+3            1.576e-21   1.092e-21   -20.803   -20.962    -0.159     (0)  
   FeSO4+          1.574e-24   1.508e-24   -23.803   -23.822    -0.019     (0)  
   FeCl+2          4.288e-25   3.615e-25   -24.368   -24.442    -0.074     (0)  
   FeCl2+          4.137e-29   3.964e-29   -28.383   -28.402    -0.019     (0)  
   Fe(SO4)2-       5.471e-30   5.240e-30   -29.262   -29.281    -0.019     (0)  
   FeHSO4+2        1.637e-30   1.377e-30   -29.786   -29.861    -0.075     (0)  
   Fe2(OH)2+4      9.214e-33   4.618e-33   -32.036   -32.336    -0.300     (0)  
   FeCl3           6.500e-35   6.502e-35   -34.187   -34.187     0.000     (0)  
   Fe3(OH)4+5      0.000e+00   0.000e+00   -43.244   -43.712    -0.469     (0)  
H(0)          2.110e-16
   H2              1.055e-16   1.055e-16   -15.977   -15.977     0.000     28.62
K             8.534e-06
   K+              8.526e-06   8.164e-06    -5.069    -5.088    -0.019      8.54
   KHCO3           8.081e-09   8.081e-09    -8.093    -8.093     0.000     40.94
   KSO4-           2.090e-11   2.004e-11   -10.680   -10.698    -0.018     12.80
Mg            9.359e-06
   Mg+2            9.110e-06   7.694e-06    -5.040    -5.114    -0.073    -21.33
   MgHCO3+         2.465e-07   2.361e-07    -6.608    -6.627    -0.019      5.05
   MgCO3           1.761e-09   1.762e-09    -8.754    -8.754     0.000    -17.08
   MgSO4           2.450e-10   2.452e-10    -9.611    -9.610     0.000    -12.99
   MgOH+           2.789e-11   2.675e-11   -10.555   -10.573    -0.018     (0)  
   Mg(SO4)2-2      2.017e-16   1.708e-16   -15.695   -15.768    -0.072     -4.97
Mn(2)         2.785e-08
   Mn+2            2.258e-08   1.907e-08    -7.646    -7.720    -0.073    -21.18
   MnHCO3+         4.834e-09   4.632e-09    -8.316    -8.334    -0.019     (0)  
   MnCO3           4.384e-10   4.385e-10    -9.358    -9.358     0.000     (0)  
   MnCl+           1.330e-12   1.275e-12   -11.876   -11.895    -0.019     -6.94
   MnOH+           5.478e-13   5.249e-13   -12.261   -12.280    -0.019     (0)  
   MnSO4           4.439e-13   4.441e-13   -12.353   -12.353     0.000     29.06
   MnCl2           9.122e-18   9.125e-18   -17.040   -17.040     0.000    103.97
   MnCl3-          4.302e-23   4.122e-23   -22.366   -22.385    -0.019     43.78
   Mn(OH)3-        8.687e-24   8.324e-24   -23.061   -23.080    -0.019     (0)  
Mn(3)         1.212e-34
   Mn+3            1.212e-34   8.403e-35   -33.916   -34.076    -0.159     (0)  
Na            7.920e-05
   Na+             7.907e-05   7.575e-05    -4.102    -4.121    -0.019     -2.25
   NaHCO3          1.251e-07   1.252e-07    -6.903    -6.902     0.000     31.83
   NaSO4-          1.899e-10   1.820e-10    -9.722    -9.740    -0.018    -22.87
   NaOH            8.597e-23   8.600e-23   -22.066   -22.066     0.000     (0)  
O(0)          0.000e+00
   O2              0.000e+00   0.000e+00   -64.532   -64.532     0.000     29.27
S(-2)         3.018e-29
   H2S             2.435e-29   2.436e-29   -28.614   -28.613     0.000     32.68
   HS-             5.830e-30   5.582e-30   -29.234   -29.253    -0.019     19.86
   S-2             1.011e-36   8.519e-37   -35.995   -36.070    -0.074     (0)  
   Fe(HS)2         0.000e+00   0.000e+00   -57.156   -57.156     0.000     (0)  
   (H2S)2          0.000e+00   0.000e+00   -58.651   -58.651     0.000     30.55
   Fe(HS)3-        0.000e+00   0.000e+00   -84.354   -84.372    -0.019     (0)  
S(6)          1.992e-07
   SO4-2           1.980e-07   1.669e-07    -6.703    -6.778    -0.074     13.80
   CaSO4           7.270e-10   7.273e-10    -9.138    -9.138     0.000      6.95
   MgSO4           2.450e-10   2.452e-10    -9.611    -9.610     0.000    -12.99
   NaSO4-          1.899e-10   1.820e-10    -9.722    -9.740    -0.018    -22.87
   KSO4-           2.090e-11   2.004e-11   -10.680   -10.698    -0.018     12.80
   HSO4-           4.359e-12   4.175e-12   -11.361   -11.379    -0.019     39.23
   FeSO4           5.909e-13   5.911e-13   -12.228   -12.228     0.000     34.41
   MnSO4           4.439e-13   4.441e-13   -12.353   -12.353     0.000     29.06
   CaHSO4+         1.413e-15   1.353e-15   -14.850   -14.869    -0.019     (0)  
   Mg(SO4)2-2      2.017e-16   1.708e-16   -15.695   -15.768    -0.072     -4.97
   FeHSO4+         1.317e-18   1.262e-18   -17.880   -17.899    -0.019     (0)  
   FeSO4+          1.574e-24   1.508e-24   -23.803   -23.822    -0.019     (0)  
   Fe(SO4)2-       5.471e-30   5.240e-30   -29.262   -29.281    -0.019     (0)  
   FeHSO4+2        1.637e-30   1.377e-30   -29.786   -29.861    -0.075     (0)  
Si            6.795e-05
   H4SiO4          6.793e-05   6.795e-05    -4.168    -4.168     0.000     53.31
   H3SiO4-         1.994e-08   1.910e-08    -7.700    -7.719    -0.019     27.55
   H2SiO4-2        1.978e-15   1.669e-15   -14.704   -14.778    -0.074     (0)  

------------------------------Saturation indices-------------------------------

  Phase               SI** log IAP   log K(285 K,   1 atm)

  Anhydrite        -7.20    -11.35   -4.15  CaSO4
  Aragonite        -2.84    -11.11   -8.27  CaCO3
  Arcanite        -14.89    -16.95   -2.06  K2SO4
  Calcite          -2.70    -11.11   -8.41  CaCO3
  CH4(g)          -25.38    -28.05   -2.67  CH4
  Chalcedony       -0.47     -4.17   -3.70  SiO2
  Chrysotile      -18.57     15.20   33.78  Mg3Si2O5(OH)4
  CO2(g)           -1.30     -2.61   -1.31  CO2
  Dolomite         -5.85    -22.76  -16.91  CaMg(CO3)2
  Epsomite        -10.08    -11.89   -1.81  MgSO4:7H2O
  Fe(OH)3(a)       -6.41     -1.52    4.89  Fe(OH)3
  FeS(ppt)        -26.46    -30.37   -3.92  FeS
  Goethite         -0.97     -1.52   -0.55  FeOOH
  Gypsum           -6.75    -11.35   -4.59  CaSO4:2H2O
  H2(g)           -12.91    -15.98   -3.07  H2
  H2O(g)           -1.83     -0.00    1.83  H2O
  H2S(g)          -27.77    -35.73   -7.97  H2S
  Halite          -10.47     -8.91    1.56  NaCl
  Hausmannite     -35.57     28.60   64.18  Mn3O4
  Hematite          0.00     -3.04   -3.04  Fe2O3
  Hexahydrite     -10.31    -11.89   -1.58  MgSO4:6H2O
  Jarosite-K      -34.42    -42.65   -8.23  KFe3(SO4)2(OH)6
  Kieserite       -10.62    -11.89   -1.27  MgSO4:H2O
  Mackinawite     -25.72    -30.37   -4.65  FeS
  Manganite       -13.66     11.68   25.34  MnOOH
  Melanterite     -12.01    -14.38   -2.37  FeSO4:7H2O
  Mirabilite      -13.20    -15.02   -1.82  Na2SO4:10H2O
  O2(g)           -61.74    -64.53   -2.79  O2
  Pyrite          -34.39    -53.22  -18.83  FeS2
  Pyrochroite      -9.96      5.24   15.20  Mn(OH)2
  Pyrolusite      -25.29     18.12   43.42  MnO2:H2O
  Quartz            0.00     -4.17   -4.17  SiO2
  Rhodochrosite    -3.17    -14.26  -11.09  MnCO3
  Sepiolite       -12.91      3.19   16.09  Mg2Si3O7.5OH:3H2O
  Sepiolite(d)    -15.47      3.19   18.66  Mg2Si3O7.5OH:3H2O
  Siderite         -3.33    -14.14  -10.81  FeCO3
  SiO2(a)          -1.35     -4.17   -2.82  SiO2
  Sulfur          -20.91    -15.73    5.18  S
  Sylvite         -10.71     -9.87    0.84  KCl
  Talc            -15.98      6.87   22.85  Mg3Si4O10(OH)2
  Thenardite      -14.78    -15.02   -0.24  Na2SO4

**For a gas, SI = log10(fugacity). Fugacity = pressure * phi / 1 atm.
  For ideal gases, phi = 1.

------------------
End of simulation.
------------------

------------------------------------
Reading input data for simulation 2.
------------------------------------

----------------------------------
End of Run after 0.013158 Seconds.
----------------------------------

