   Input file: /Users/enrico/Desktop/Part III Project/Code/Nepal-1/Code/phreeqc_input_test.pqi
  Output file: /Users/enrico/Desktop/Part III Project/Code/Nepal-1/Code/phreeqc_Al_sens_test.txt
Database file: /Applications/MacPHREEQC.app/Contents/Resources/database/phreeqc.dat

------------------
Reading data base.
------------------

	SOLUTION_MASTER_SPECIES
	SOLUTION_SPECIES
	PHASES
	EXCHANGE_MASTER_SPECIES
	EXCHANGE_SPECIES
	SURFACE_MASTER_SPECIES
	SURFACE_SPECIES
	MEAN_GAMMAS
	RATES
	END
------------------------------------
Reading input data for simulation 1.
------------------------------------

	TITLE NEP22-10 -- Geochemical Solution
	SOLUTION 41 NEP22-10
	    units ppm
	    pH 6.48
	    temp 12.8
	    Ca 1e-12
	    Mg 0.0803014574121835
	    Na 1.5138118675660384
	    Al 0.00175004266427383
	    K 0.19666999143630776
	    Fe 0.00207573704015558
	    Mn 0.00153
	    Si 5.422355675330124
	    Alkalinity 142.29 as CaCO3
	    S(6) 0.01913
	TITLE NEP22-11 -- Geochemical Solution
	SOLUTION 42 NEP22-11
	    units ppm
	    pH 6.59
	    temp 13.3
	    Ca 0.05812756174362836
	    Mg 0.12239777968326945
	    Na 1.788494969332509
	    Al 0.00591794909345342
	    K 0.2731970173143763
	    Fe 0.00289299969973289
	    Mn 0.00045999999999999996
	    Si 6.036532826078256
	    Alkalinity 173.81 as CaCO3
	    S(6) 0.04954
	TITLE NEP22-12 -- Geochemical Solution
	SOLUTION 43 NEP22-12
	    units ppm
	    pH 6.77
	    temp 13.4
	    Ca 0.5821138196743609
	    Mg 0.12544088839955028
	    Na 1.0974545957395296
	    Al 0.00152368585240956
	    K 0.12567008462116194
	    Fe 0.0012951786448244
	    Mn 0.00013
	    Si 4.9934533174971145
	    Alkalinity 173.4 as CaCO3
	    S(6) 0.07242
	TITLE NEP22-13 -- Geochemical Solution
	SOLUTION 44 NEP22-13
	    units ppm
	    pH 6.76
	    temp 15.0
	    Ca 0.2340716299109327
	    Mg 0.1752736742018642
	    Na 1.5038085614488432
	    Al 0.00379381036258937
	    K 0.29483127349538124
	    Fe 0.00211428159034109
	    Mn 0.00022000000000000003
	    Si 5.155345945680576
	    Alkalinity 157.34 as CaCO3
	    S(6) 0.1528
	TITLE NEP22-15 -- Geochemical Solution
	SOLUTION 45 NEP22-15
	    units ppm
	    pH 7.29
	    temp 14.6
	    Ca 2.001854117882585
	    Mg 0.3291101926575111
	    Na 2.405691999417565
	    Al 0.000911074251359241
	    K 0.39115025849804097
	    Fe 0.00277420402916498
	    Mn 0.00022000000000000003
	    Si 6.730672034674842
	    Alkalinity 250.48 as CaCO3
	    S(6) 0.25737
	TITLE NEP22-16 -- Geochemical Solution
	SOLUTION 46 NEP22-16
	    units ppm
	    pH 7.14
	    temp 11.7
	    Ca 1.0564712735031043
	    Mg 0.21553543198790165
	    Na 1.006082041923721
	    Al 0.00632897532460417
	    K 0.2964619846679321
	    Fe 0.0019076076683123499
	    Mn 3e-05
	    Si 5.062461288837373
	    Alkalinity 170.85 as CaCO3
	    S(6) 0.11358
	TITLE NEP22-17 -- Geochemical Solution
	SOLUTION 47 NEP22-17
	    units ppm
	    pH 6.9
	    temp 15.3
	    Ca 0.0802411710418031
	    Mg 0.12838250947511107
	    Na 1.3934204609551497
	    Al 0.00325065451163579
	    K 0.2529145781943957
	    Fe 0.00185611061745936
	    Mn 0.00024
	    Si 5.074926721475413
	    Alkalinity 204.41 as CaCO3
	    S(6) 0.18259
	TITLE NEP22-18 -- Geochemical Solution
	SOLUTION 48 NEP22-18
	    units ppm
	    pH 6.98
	    temp 15.0
	    Ca 0.9614674616838051
	    Mg 0.3072641667322225
	    Na 2.453164702157078
	    Al 0.0012866424568902
	    K 0.49218352941933813
	    Fe 0.0023835273088702
	    Mn 0.00021
	    Si 7.275125910888682
	    Alkalinity 276.01 as CaCO3
	    S(6) 0.14311
	TITLE NEP22-19 -- Geochemical Solution
	SOLUTION 49 NEP22-19
	    units ppm
	    pH 6.07
	    temp 15.1
	    Ca 0.24689912160354058
	    Mg 0.16200892508253842
	    Na 1.4169624198029533
	    Al 0.00218556740564842
	    K 0.3070950383465585
	    Fe 0.00161899510385592
	    Mn 0.00104
	    Si 5.1849937437073566
	    Alkalinity 183.6 as CaCO3
	    S(6) 0.14061
	TITLE NEP22-20 -- Geochemical Solution
	SOLUTION 50 NEP22-20
	    units ppm
	    pH 7.14
	    temp 11.4
	    Ca 1e-12
	    Mg 0.11248127420475748
	    Na 1.0560652057450015
	    Al 0.0125171683646091
	    K 0.2209254743004037
	    Fe 0.0029765152283134
	    Mn 0.00055
	    Si 4.462199123722301
	    Alkalinity 210.4 as CaCO3
	    S(6) 0.14612
	TITLE NEP22-42 -- Geochemical Solution
	SOLUTION 51 NEP22-42
	    units ppm
	    pH 6.24
	    temp 21.9
	    Ca 1.4867099493052
	    Mg 0.16414604037420902
	    Na 3.0379980903423025
	    Al 0.0005232497874369439
	    K 0.360373192588668
	    Fe 0.00264421447920189
	    Mn 0.00013
	    Si 7.743325965927576
	    Alkalinity 268.87 as CaCO3
	    S(6) 0.18571
	TITLE NEP22-45 -- Geochemical Solution
	SOLUTION 52 NEP22-45
	    units ppm
	    pH 7.57
	    temp 21.6
	    Ca 2.0060294657433193
	    Mg 0.2570281142309106
	    Na 4.3017334249608705
	    Al 0.00140760176362528
	    K 0.2838923975795482
	    Fe 0.00297072217353667
	    Mn 0.00016
	    Si 9.060312243843978
	    Alkalinity 354.28 as CaCO3
	    S(6) 0.13991
	TITLE NEP22-53 -- Geochemical Solution
	SOLUTION 53 NEP22-53
	    units ppm
	    pH 6.33
	    temp 16.7
	    Ca 1.628223550212226
	    Mg 0.3604341339983838
	    Na 2.977467252793852
	    Al 0.000975890008736437
	    K 0.6955664754396449
	    Fe 0.00329276780612551
	    Mn 0.00077
	    Si 7.644013602917633
	    Alkalinity 258.06 as CaCO3
	    S(6) 0.09561
	TITLE NEP22-54 -- Geochemical Solution
	SOLUTION 54 NEP22-54
	    units ppm
	    pH 6.19
	    temp 17.0
	    Ca 1.3911297584400264
	    Mg 0.31669597106162
	    Na 2.811949776202403
	    Al 0.000469365416983843
	    K 0.6056140117364184
	    Fe 0.00285353637964085
	    Mn 7e-05
	    Si 7.357576957894231
	    Alkalinity 239.99 as CaCO3
	    S(6) 0.08256
	TITLE NEP22-55 -- Geochemical Solution
	SOLUTION 55 NEP22-55
	    units ppm
	    pH 6.69
	    temp 17.1
	    Ca 1.3640948337051204
	    Mg 0.31332889054281365
	    Na 2.7196256025853014
	    Al 0.00130448227558997
	    K 0.6096148671831536
	    Fe 0.00268223311222332
	    Mn 0.00016
	    Si 7.29877589991462
	    Alkalinity 268.311 as CaCO3
	    S(6) 0.06982
	TITLE NEP22-56 -- Geochemical Solution
	SOLUTION 56 NEP22-56
	    units ppm
	    pH 6.86
	    temp 19.1
	    Ca 3.046204270264884
	    Mg 0.21368529919631662
	    Na 4.520000892170995
	    Al 0.00105755134926694
	    K 0.5240084992238648
	    Fe 0.00434287808053633
	    Mn 0.00024
	    Si 10.689950817694884
	    Alkalinity 387.09 as CaCO3
	    S(6) 0.11309
	TITLE NEP22-57 -- Geochemical Solution
	SOLUTION 57 NEP22-57
	    units ppm
	    pH 6.85
	    temp 19.3
	    Ca 4.68989492032375
	    Mg 0.5204765998529722
	    Na 5.781731542253801
	    Al 0.000736418513246425
	    K 0.923951452796318
	    Fe 0.00506086331311566
	    Mn 0.00029
	    Si 12.288698732609875
	    Alkalinity 532.75 as CaCO3
	    S(6) 0.42366
	TITLE NEP22-58 -- Geochemical Solution
	SOLUTION 58 NEP22-58
	    units ppm
	    pH 7.34
	    temp 16.8
	    Ca 2.590066094333378
	    Mg 0.2584117343674178
	    Na 4.126274642303534
	    Al 0.00249361474054246
	    K 0.5199879823933993
	    Fe 0.00339374466104222
	    Mn 0.00022000000000000003
	    Si 10.131617459688785
	    Alkalinity 350.77 as CaCO3
	    S(6) 0.09154
	TITLE NEP22-59 -- Geochemical Solution
	SOLUTION 59 NEP22-59
	    units ppm
	    pH 7.48
	    temp 20.3
	    Ca 1.444061282677126
	    Mg 0.24294738954268327
	    Na 2.990939410597721
	    Al 0.00202763476099796
	    K 0.43893467585601176
	    Fe 0.00196879939609519
	    Mn 0.0002
	    Si 7.553819338356688
	    Alkalinity 250.41 as CaCO3
	    S(6) 0.12357
	TITLE NEP22-60 -- Geochemical Solution
	SOLUTION 60 NEP22-60
	    units ppm
	    pH 7.04
	    temp 21.3
	    Ca 2.7977992965644893
	    Mg 0.483933628789691
	    Na 3.6862393383407217
	    Al 0.001751501215998
	    K 0.7346978817958648
	    Fe 0.00425432702478449
	    Mn 0.00039
	    Si 7.843650057336858
	    Alkalinity 239.99 as CaCO3
	    S(6) 0.29162
	TITLE NEP22-9 -- Geochemical Solution
	SOLUTION 61 NEP22-9
	    units ppm
	    pH 6.32
	    temp 12.8
	    Ca 0.16914046182763928
	    Mg 0.09761550083421267
	    Na 0.3256317850694765
	    Al 0.00356960309071777
	    K 0.07152884574630569
	    Fe 0.00061354310442368
	    Mn 0.00194
	    Si 2.8322820367422654
	    Alkalinity 309.4 as CaCO3
	    S(6) 0.06822
	TITLE Nep24-010 -- Geochemical Solution
	SOLUTION 62 Nep24-010
	    units ppm
	    pH 6.45
	    temp 22.2
	    Ca 1.5530373796500208
	    Mg 0.2133996203205312
	    Na 2.8704182136957197
	    Al 0.00414
	    K 0.48694057457789897
	    Fe 1e-12
	    Mn 0.0002066666666666667
	    Si 6.766736786785647
	    Alkalinity 151.875 as CaCO3
	    S(6) 0.14115
	TITLE Nep24-011 -- Geochemical Solution
	SOLUTION 63 Nep24-011
	    units ppm
	    pH 7.07
	    temp 23.7
	    Ca 1.578865174110572
	    Mg 0.2643140823604954
	    Na 2.7838640457328236
	    Al 0.00885
	    K 0.6217999574278944
	    Fe 0.00208
	    Mn 9e-05
	    Si 6.673412505852314
	    Alkalinity 276.5625 as CaCO3
	    S(6) 0.09355
	TITLE Nep24-014 -- Geochemical Solution
	SOLUTION 64 Nep24-014
	    units ppm
	    pH 6.58
	    temp 14.3
	    Ca 0.1030044848027153
	    Mg 0.09266597441787942
	    Na 0.3036191834290685
	    Al 0.00894
	    K 0.07612709693818194
	    Fe 0.06989
	    Mn 0.06345333333333333
	    Si 2.4727334143345563
	    Alkalinity 46.875 as CaCO3
	    S(6) 0.09281
	TITLE Nep24-015 -- Geochemical Solution
	SOLUTION 65 Nep24-015
	    units ppm
	    pH 6.1
	    temp 16.6
	    Ca 1e-12
	    Mg 0.13456862075575085
	    Na 1.1452740509995405
	    Al 0.00741
	    K 0.3177565710961208
	    Fe 0.0027
	    Mn 0.002246666666666667
	    Si 4.331592129010504
	    Alkalinity 110.46875 as CaCO3
	    S(6) 0.07611
	TITLE Nep24-016 -- Geochemical Solution
	SOLUTION 66 Nep24-016
	    units ppm
	    pH 7.05
	    temp 17.5
	    Ca 1.0778699783967278
	    Mg 0.20409417069781968
	    Na 0.7897075990578566
	    Al 0.01088
	    K 0.41757295546418993
	    Fe 0.0038800000000000006
	    Mn 0.00043
	    Si 3.7704414734254885
	    Alkalinity 175.625 as CaCO3
	    S(6) 0.10745
	TITLE Nep24-017 -- Geochemical Solution
	SOLUTION 67 Nep24-017
	    units ppm
	    pH 6.52
	    temp 16.3
	    Ca 0.9463061666942357
	    Mg 0.1953791854220331
	    Na 1.8745108638003913
	    Al 0.00579
	    K 0.3430188708447182
	    Fe 0.00073
	    Mn 0.0003699999999999999
	    Si 5.616174471749735
	    Alkalinity 174.84375 as CaCO3
	    S(6) 0.06486
	TITLE Nep24-034 -- Geochemical Solution
	SOLUTION 68 Nep24-034
	    units ppm
	    pH 5.67
	    temp 14.3
	    Ca 1e-12
	    Mg 0.11014662024961881
	    Na 1.308517147832705
	    Al 0.00484
	    K 0.33921936132305236
	    Fe 0.00324
	    Mn 0.00132
	    Si 4.740431154757944
	    Alkalinity 114.0625 as CaCO3
	    S(6) 0.03811
	TITLE Nep24-038 -- Geochemical Solution
	SOLUTION 69 Nep24-038
	    units ppm
	    pH 6.28
	    temp 22.8
	    Ca 2.80541693916277
	    Mg 0.21514508721998224
	    Na 3.916257951449729
	    Al 0.00417
	    K 0.729935590114895
	    Fe 0.00323
	    Mn 0.00046999999999999993
	    Si 9.753571667550156
	    Alkalinity 398.4375 as CaCO3
	    S(6) 0.07441
	TITLE NEP24-040 -- Geochemical Solution
	SOLUTION 70 NEP24-040
	    units ppm
	    pH 6.27
	    temp 19.8
	    Ca 3.67693347246694
	    Mg 0.5597000863765754
	    Na 3.3300149214858528
	    Al 0.00738
	    K 0.4592710964286767
	    Fe 0.00063
	    Mn 0.0003533333333333333
	    Si 10.991221393701855
	    Alkalinity 421.875 as CaCO3
	    S(6) 0.08881
	TITLE NEP24-041 -- Geochemical Solution
	SOLUTION 71 NEP24-041
	    units ppm
	    pH 6.95
	    temp 20.6
	    Ca 0.6505301143064693
	    Mg 0.2524321594088043
	    Na 2.3801820767774915
	    Al 0.02456
	    K 0.863506372394715
	    Fe 0.03656
	    Mn 0.00141
	    Si 6.6873498416564745
	    Alkalinity 445.3125 as CaCO3
	    S(6) 0.19187
	TITLE NEP24-050 -- Geochemical Solution
	SOLUTION 72 NEP24-050
	    units ppm
	    pH 7.6
	    temp 13.8
	    Ca 0.41775071344044346
	    Mg 0.1329534879639305
	    Na 1.1865366063919816
	    Al 0.00627
	    K 0.30097521583672104
	    Fe 0.00268
	    Mn 0.0003633333333333333
	    Si 4.945744795336244
	    Alkalinity 124.53125 as CaCO3
	    S(6) 0.09577
	TITLE NEP24-051 -- Geochemical Solution
	SOLUTION 73 NEP24-051
	    units ppm
	    pH 7.18
	    temp 15.7
	    Ca 1.2269643860373332
	    Mg 0.20455022523603134
	    Na 2.0376343406426005
	    Al 0.00274
	    K 0.3840630417165011
	    Fe 0.00289
	    Mn 0.0004133333333333333
	    Si 6.239072165666095
	    Alkalinity 201.5625 as CaCO3
	    S(6) 0.00117
	TITLE NEP24-052 -- Geochemical Solution
	SOLUTION 74 NEP24-052
	    units ppm
	    pH 6.87
	    temp 16.7
	    Ca 2.485327546773422
	    Mg 0.3737503253997931
	    Na 2.6219129710091833
	    Al 0.00943
	    K 0.6341446585617837
	    Fe 0.00252
	    Mn 0.0005200000000000001
	    Si 7.951748869112764
	    Alkalinity 306.25 as CaCO3
	    S(6) 0.04317
	EQUILIBRIUM_PHASES 1
	    Calcite 0.0 0.0   # Saturation index for calcite
	    Gypsum 0.0 0.0    # Saturation index for gypsum
	    Quartz 0.0 0.0    # Saturation index for quartz
	    Halite 0.0 0.0    # Saturation index for halite
	    Dolomite 0.0 0.0  # Saturation index for dolomite
	    Anhydrite 0.0 0.0 # Saturation index for anhydrite
	    Pyrite 0.0 0.0    # Saturation index for pyrite
	    Hematite 0.0 0.0  # Saturation index for hematite
	    Siderite 0.0 0.0  # Saturation index for siderite
	    Kaolinite 0.0 0.0 # Saturation index for kaolinite
	    Gibbsite 0.0 0.0  # Saturation index for gibbsite
	    Goethite 0.0 0.0  # Saturation index for goethite
	    Anorthite 0.0 0.0 # Saturation index for anorthite
	    Albite 0.0 0.0    # Saturation index for albite
	    Illite 0.0 0.0    # Saturation index for illite
	SELECTED_OUTPUT
	    file results.txt
	    saturation_indices
-----
TITLE
-----

 NEP24-052 -- Geochemical Solution

-------------------------------------------
Beginning of initial solution calculations.
-------------------------------------------

Initial solution 41.	NEP22-10

WARNING: Equivalent wt for alkalinity should be Ca.5(CO3).5. Using 50.0455 g/eq.
-----------------------------Solution composition------------------------------

	Elements           Molality       Moles

	Al                6.487e-08   6.487e-08
	Alkalinity        2.844e-03   2.844e-03
	Ca                2.495e-17   2.495e-17
	Fe                3.717e-08   3.717e-08
	K                 5.030e-06   5.030e-06
	Mg                3.303e-06   3.303e-06
	Mn                2.785e-08   2.785e-08
	Na                6.586e-05   6.586e-05
	S(6)              1.992e-07   1.992e-07
	Si                9.026e-05   9.026e-05

----------------------------Description of solution----------------------------

                                       pH  =   6.480    
                                       pe  =   4.000    
      Specific Conductance (µS/cm,  13°C)  = 90
                          Density (g/cm³)  =   0.99954
                               Volume (L)  =   1.00075
                        Viscosity (mPa s)  =   1.20861
                        Activity of water  =   1.000
                 Ionic strength (mol/kgw)  =   1.465e-03
                       Mass of water (kg)  =   1.000e+00
                    Total carbon (mol/kg)  =   5.316e-03
                       Total CO2 (mol/kg)  =   5.316e-03
                         Temperature (°C)  =  12.80
                  Electrical balance (eq)  =  -2.766e-03
 Percent error, 100*(Cat-|An|)/(Cat+|An|)  = -94.67
                               Iterations  =   9
                                  Total H  = 1.110156e+02
                                  Total O  = 5.552005e+01

----------------------------Distribution of species----------------------------

                                               Log       Log       Log    mole V
   Species          Molality    Activity  Molality  Activity     Gamma   cm³/mol

   H+              3.445e-07   3.311e-07    -6.463    -6.480    -0.017      0.00
   OH-             1.184e-08   1.135e-08    -7.927    -7.945    -0.018     -4.78
   H2O             5.551e+01   9.999e-01     1.744    -0.000     0.000     18.03
Al            6.487e-08
   Al(OH)2+        2.989e-08   2.868e-08    -7.524    -7.542    -0.018     (0)  
   Al(OH)4-        2.526e-08   2.423e-08    -7.597    -7.616    -0.018     (0)  
   Al(OH)3         4.805e-09   4.807e-09    -8.318    -8.318     0.000     (0)  
   AlOH+2          4.499e-09   3.814e-09    -8.347    -8.419    -0.072    -27.29
   Al+3            4.102e-10   2.872e-10    -9.387    -9.542    -0.155    -41.39
   AlSO4+          1.353e-13   1.298e-13   -12.869   -12.887    -0.018     (0)  
   Al(SO4)2-       6.795e-19   6.517e-19   -18.168   -18.186    -0.018     (0)  
   AlHSO4+2        4.129e-21   3.492e-21   -20.384   -20.457    -0.073     (0)  
C(4)          5.316e-03
   HCO3-           2.843e-03   2.728e-03    -2.546    -2.564    -0.018     23.28
   CO2             2.473e-03   2.473e-03    -2.607    -2.607     0.000     33.81
   CO3-2           3.418e-07   2.898e-07    -6.466    -6.538    -0.072     -5.64
   NaHCO3          1.043e-07   1.044e-07    -6.982    -6.981     0.000     31.83
   MgHCO3+         8.742e-08   8.383e-08    -7.058    -7.077    -0.018      5.05
   (CO2)2          7.285e-08   7.288e-08    -7.138    -7.137     0.000     67.63
   FeHCO3+         7.177e-09   6.882e-09    -8.144    -8.162    -0.018     (0)  
   MnHCO3+         4.853e-09   4.655e-09    -8.314    -8.332    -0.018     (0)  
   KHCO3           4.775e-09   4.775e-09    -8.321    -8.321     0.000     40.94
   MgCO3           6.253e-10   6.256e-10    -9.204    -9.204     0.000    -17.08
   MnCO3           4.406e-10   4.408e-10    -9.356    -9.356     0.000     (0)  
   FeCO3           1.753e-10   1.754e-10    -9.756    -9.756     0.000     (0)  
   CaHCO3+         1.313e-19   1.261e-19   -18.882   -18.899    -0.018    122.07
   CaCO3           8.513e-21   8.516e-21   -20.070   -20.070     0.000    -14.64
Ca            2.495e-17
   Ca+2            2.481e-17   2.103e-17   -16.605   -16.677    -0.072    -18.34
   CaHCO3+         1.313e-19   1.261e-19   -18.882   -18.899    -0.018    122.07
   CaCO3           8.513e-21   8.516e-21   -20.070   -20.070     0.000    -14.64
   CaSO4           5.726e-22   5.728e-22   -21.242   -21.242     0.000      6.95
   CaOH+           1.099e-23   1.054e-23   -22.959   -22.977    -0.018     (0)  
   CaHSO4+         1.111e-27   1.066e-27   -26.954   -26.972    -0.018     (0)  
Fe(2)         3.709e-08
   Fe+2            2.972e-08   2.523e-08    -7.527    -7.598    -0.071    -23.03
   FeHCO3+         7.177e-09   6.882e-09    -8.144    -8.162    -0.018     (0)  
   FeCO3           1.753e-10   1.754e-10    -9.756    -9.756     0.000     (0)  
   FeOH+           9.707e-12   9.313e-12   -11.013   -11.031    -0.018     (0)  
   FeSO4           5.988e-13   5.990e-13   -12.223   -12.223     0.000     34.41
   Fe(OH)2         7.914e-17   7.916e-17   -16.102   -16.101     0.000     (0)  
   FeHSO4+         1.333e-18   1.278e-18   -17.875   -17.893    -0.018     (0)  
   Fe(OH)3-        8.170e-21   7.838e-21   -20.088   -20.106    -0.018     (0)  
Fe(3)         8.658e-11
   Fe(OH)2+        7.117e-11   6.829e-11   -10.148   -10.166    -0.018     (0)  
   Fe(OH)3         1.525e-11   1.526e-11   -10.817   -10.816     0.000     (0)  
   FeOH+2          1.306e-13   1.106e-13   -12.884   -12.956    -0.072     (0)  
   Fe(OH)4-        2.626e-14   2.520e-14   -13.581   -13.599    -0.018     (0)  
   Fe+3            1.714e-17   1.200e-17   -16.766   -16.921    -0.155     (0)  
   FeSO4+          1.744e-20   1.673e-20   -19.759   -19.777    -0.018     (0)  
   Fe2(OH)2+4      1.090e-24   5.573e-25   -23.963   -24.254    -0.291     (0)  
   Fe(SO4)2-       6.118e-26   5.867e-26   -25.213   -25.232    -0.018     (0)  
   FeHSO4+2        1.806e-26   1.527e-26   -25.743   -25.816    -0.073     (0)  
   Fe3(OH)4+5      7.336e-32   2.572e-32   -31.135   -31.590    -0.455     (0)  
H(0)          1.762e-24
   H2              8.808e-25   8.811e-25   -24.055   -24.055     0.000     28.62
K             5.030e-06
   K+              5.026e-06   4.818e-06    -5.299    -5.317    -0.018      8.54
   KHCO3           4.775e-09   4.775e-09    -8.321    -8.321     0.000     40.94
   KSO4-           1.244e-11   1.194e-11   -10.905   -10.923    -0.018     12.80
Mg            3.303e-06
   Mg+2            3.215e-06   2.728e-06    -5.493    -5.564    -0.071    -21.33
   MgHCO3+         8.742e-08   8.383e-08    -7.058    -7.077    -0.018      5.05
   MgCO3           6.253e-10   6.256e-10    -9.204    -9.204     0.000    -17.08
   MgSO4           8.772e-11   8.778e-11   -10.057   -10.057     0.000    -12.99
   MgOH+           9.879e-12   9.484e-12   -11.005   -11.023    -0.018     (0)  
   Mg(SO4)2-2      7.256e-17   6.172e-17   -16.139   -16.210    -0.070     -5.26
Mn(2)         2.785e-08
   Mn+2            2.256e-08   1.915e-08    -7.647    -7.718    -0.071    -21.21
   MnHCO3+         4.853e-09   4.655e-09    -8.314    -8.332    -0.018     (0)  
   MnCO3           4.406e-10   4.408e-10    -9.356    -9.356     0.000     (0)  
   MnOH+           5.493e-13   5.269e-13   -12.260   -12.278    -0.018     (0)  
   MnSO4           4.499e-13   4.501e-13   -12.347   -12.347     0.000     29.06
   Mn(OH)3-        8.710e-24   8.356e-24   -23.060   -23.078    -0.018     (0)  
Mn(3)         1.319e-30
   Mn+3            1.319e-30   9.232e-31   -29.880   -30.035    -0.155     (0)  
Na            6.586e-05
   Na+             6.575e-05   6.307e-05    -4.182    -4.200    -0.018     -2.25
   NaHCO3          1.043e-07   1.044e-07    -6.982    -6.981     0.000     31.83
   NaSO4-          1.594e-10   1.530e-10    -9.797    -9.815    -0.018    -23.00
   NaOH            7.158e-23   7.160e-23   -22.145   -22.145     0.000     (0)  
O(0)          0.000e+00
   O2              0.000e+00   0.000e+00   -48.375   -48.375     0.000     29.27
S(6)          1.992e-07
   SO4-2           1.989e-07   1.685e-07    -6.701    -6.773    -0.072     13.76
   NaSO4-          1.594e-10   1.530e-10    -9.797    -9.815    -0.018    -23.00
   MgSO4           8.772e-11   8.778e-11   -10.057   -10.057     0.000    -12.99
   KSO4-           1.244e-11   1.194e-11   -10.905   -10.923    -0.018     12.80
   HSO4-           4.395e-12   4.215e-12   -11.357   -11.375    -0.018     39.23
   FeSO4           5.988e-13   5.990e-13   -12.223   -12.223     0.000     34.41
   MnSO4           4.499e-13   4.501e-13   -12.347   -12.347     0.000     29.06
   AlSO4+          1.353e-13   1.298e-13   -12.869   -12.887    -0.018     (0)  
   Mg(SO4)2-2      7.256e-17   6.172e-17   -16.139   -16.210    -0.070     -5.26
   FeHSO4+         1.333e-18   1.278e-18   -17.875   -17.893    -0.018     (0)  
   Al(SO4)2-       6.795e-19   6.517e-19   -18.168   -18.186    -0.018     (0)  
   FeSO4+          1.744e-20   1.673e-20   -19.759   -19.777    -0.018     (0)  
   AlHSO4+2        4.129e-21   3.492e-21   -20.384   -20.457    -0.073     (0)  
   CaSO4           5.726e-22   5.728e-22   -21.242   -21.242     0.000      6.95
   Fe(SO4)2-       6.118e-26   5.867e-26   -25.213   -25.232    -0.018     (0)  
   FeHSO4+2        1.806e-26   1.527e-26   -25.743   -25.816    -0.073     (0)  
   CaHSO4+         1.111e-27   1.066e-27   -26.954   -26.972    -0.018     (0)  
Si            9.026e-05
   H4SiO4          9.023e-05   9.026e-05    -4.045    -4.044     0.000     53.31
   H3SiO4-         2.646e-08   2.537e-08    -7.577    -7.596    -0.018     27.54
   H2SiO4-2        2.615e-15   2.217e-15   -14.582   -14.654    -0.072     (0)  

------------------------------Saturation indices-------------------------------

  Phase               SI** log IAP   log K(285 K,   1 atm)

  Al(OH)3(a)       -1.73      9.90   11.63  Al(OH)3
  Albite           -5.14    -23.95  -18.81  NaAlSi3O8
  Alunite          -8.78     -8.61    0.17  KAl3(SO4)2(OH)6
  Anhydrite       -19.30    -23.45   -4.15  CaSO4
  Anorthite       -19.92    -40.00  -20.08  CaAl2Si2O8
  Aragonite       -14.95    -23.22   -8.27  CaCO3
  Arcanite        -15.35    -17.41   -2.06  K2SO4
  Ca-Montmorillonite  -1.45    -48.30  -46.85  Ca0.165Al2.33Si3.67O10(OH)2
  Calcite         -14.80    -23.22   -8.41  CaCO3
  Chalcedony       -0.35     -4.04   -3.70  SiO2
  Chlorite(14A)   -28.48     44.64   73.12  Mg5Al2Si3O10(OH)8
  Chrysotile      -19.68     14.10   33.78  Mg3Si2O5(OH)4
  CO2(g)           -1.30     -2.61   -1.31  CO2
  Dolomite        -18.41    -35.32  -16.91  CaMg(CO3)2
  Epsomite        -10.52    -12.34   -1.81  MgSO4:7H2O
  Fe(OH)3(a)       -2.37      2.52    4.89  Fe(OH)3
  Gibbsite          1.08      9.90    8.82  Al(OH)3
  Goethite          3.07      2.52   -0.55  FeOOH
  Gypsum          -18.86    -23.45   -4.59  CaSO4:2H2O
  H2(g)           -20.99    -24.05   -3.07  H2
  H2O(g)           -1.83     -0.00    1.83  H2O
  Hausmannite     -27.49     36.69   64.18  Mn3O4
  Hematite          8.08      5.04   -3.04  Fe2O3
  Hexahydrite     -10.75    -12.34   -1.58  MgSO4:6H2O
  Illite           -2.05    -44.03  -41.98  K0.6Mg0.25Al2.3Si3.5O10(OH)2
  Jarosite-K      -22.51    -30.75   -8.23  KFe3(SO4)2(OH)6
  K-feldspar       -3.53    -25.07  -21.54  KAlSi3O8
  K-mica            4.16     18.72   14.56  KAl3Si3O10(OH)2
  Kaolinite         3.17     11.71    8.54  Al2Si2O5(OH)4
  Kieserite       -11.06    -12.34   -1.27  MgSO4:H2O
  Manganite        -9.62     15.72   25.34  MnOOH
  Melanterite     -12.00    -14.37   -2.37  FeSO4:7H2O
  Mirabilite      -13.35    -15.17   -1.82  Na2SO4:10H2O
  O2(g)           -45.58    -48.38   -2.79  O2
  Pyrochroite      -9.96      5.24   15.20  Mn(OH)2
  Pyrolusite      -17.21     26.20   43.42  MnO2:H2O
  Quartz            0.12     -4.04   -4.17  SiO2
  Rhodochrosite    -3.17    -14.26  -11.09  MnCO3
  Sepiolite       -13.44      2.66   16.09  Mg2Si3O7.5OH:3H2O
  Sepiolite(d)    -16.00      2.66   18.66  Mg2Si3O7.5OH:3H2O
  Siderite         -3.32    -14.14  -10.81  FeCO3
  SiO2(a)          -1.23     -4.04   -2.82  SiO2
  Talc            -16.84      6.01   22.85  Mg3Si4O10(OH)2
  Thenardite      -14.93    -15.17   -0.24  Na2SO4

**For a gas, SI = log10(fugacity). Fugacity = pressure * phi / 1 atm.
  For ideal gases, phi = 1.

Initial solution 42.	NEP22-11

WARNING: Equivalent wt for alkalinity should be Ca.5(CO3).5. Using 50.0455 g/eq.
-----------------------------Solution composition------------------------------

	Elements           Molality       Moles

	Al                2.194e-07   2.194e-07
	Alkalinity        3.474e-03   3.474e-03
	Ca                1.451e-06   1.451e-06
	Fe                5.181e-08   5.181e-08
	K                 6.988e-06   6.988e-06
	Mg                5.035e-06   5.035e-06
	Mn                8.375e-09   8.375e-09
	Na                7.781e-05   7.781e-05
	S(6)              5.158e-07   5.158e-07
	Si                1.005e-04   1.005e-04

----------------------------Description of solution----------------------------

                                       pH  =   6.590    
                                       pe  =   4.000    
      Specific Conductance (µS/cm,  13°C)  = 112
                          Density (g/cm³)  =   0.99950
                               Volume (L)  =   1.00083
                        Viscosity (mPa s)  =   1.19252
                        Activity of water  =   1.000
                 Ionic strength (mol/kgw)  =   1.793e-03
                       Mass of water (kg)  =   1.000e+00
                    Total carbon (mol/kg)  =   5.784e-03
                       Total CO2 (mol/kg)  =   5.784e-03
                         Temperature (°C)  =  13.30
                  Electrical balance (eq)  =  -3.376e-03
 Percent error, 100*(Cat-|An|)/(Cat+|An|)  = -94.52
                               Iterations  =   9 (18 overall)
                                  Total H  = 1.110163e+02
                                  Total O  = 5.552166e+01

----------------------------Distribution of species----------------------------

                                               Log       Log       Log    mole V
   Species          Molality    Activity  Molality  Activity     Gamma   cm³/mol

   H+              2.684e-07   2.570e-07    -6.571    -6.590    -0.019      0.00
   OH-             1.600e-08   1.527e-08    -7.796    -7.816    -0.020     -4.74
   H2O             5.551e+01   9.999e-01     1.744    -0.000     0.000     18.03
Al            2.194e-07
   Al(OH)4-        1.149e-07   1.098e-07    -6.940    -6.960    -0.020     (0)  
   Al(OH)2+        7.820e-08   7.473e-08    -7.107    -7.126    -0.020     (0)  
   Al(OH)3         1.684e-08   1.685e-08    -7.774    -7.773     0.000     (0)  
   AlOH+2          8.797e-09   7.336e-09    -8.056    -8.135    -0.079    -27.30
   Al+3            6.123e-10   4.144e-10    -9.213    -9.383    -0.170    -41.40
   AlSO4+          5.025e-13   4.799e-13   -12.299   -12.319    -0.020     (0)  
   Al(SO4)2-       6.440e-18   6.151e-18   -17.191   -17.211    -0.020     (0)  
   AlHSO4+2        1.209e-20   1.005e-20   -19.918   -19.998    -0.080     (0)  
C(4)          5.784e-03
   HCO3-           3.472e-03   3.318e-03    -2.459    -2.479    -0.020     23.36
   CO2             2.311e-03   2.312e-03    -2.636    -2.636     0.000     33.84
   CO3-2           5.519e-07   4.602e-07    -6.258    -6.337    -0.079     -5.53
   MgHCO3+         1.594e-07   1.522e-07    -6.798    -6.818    -0.020      5.07
   NaHCO3          1.515e-07   1.516e-07    -6.820    -6.819     0.000     31.83
   (CO2)2          6.485e-08   6.488e-08    -7.188    -7.188     0.000     67.68
   FeHCO3+         1.152e-08   1.100e-08    -7.939    -7.959    -0.020     (0)  
   CaHCO3+         9.376e-09   8.963e-09    -8.028    -8.048    -0.020    122.11
   KHCO3           8.102e-09   8.103e-09    -8.091    -8.091     0.000     40.94
   MnHCO3+         1.679e-09   1.604e-09    -8.775    -8.795    -0.020     (0)  
   MgCO3           1.492e-09   1.493e-09    -8.826    -8.826     0.000    -17.08
   CaCO3           7.755e-10   7.759e-10    -9.110    -9.110     0.000    -14.64
   FeCO3           3.658e-10   3.659e-10    -9.437    -9.437     0.000     (0)  
   MnCO3           1.982e-10   1.983e-10    -9.703    -9.703     0.000     (0)  
Ca            1.451e-06
   Ca+2            1.440e-06   1.201e-06    -5.842    -5.921    -0.079    -18.31
   CaHCO3+         9.376e-09   8.963e-09    -8.028    -8.048    -0.020    122.11
   CaCO3           7.755e-10   7.759e-10    -9.110    -9.110     0.000    -14.64
   CaSO4           8.355e-11   8.358e-11   -10.078   -10.078     0.000      6.98
   CaOH+           8.119e-13   7.752e-13   -12.091   -12.111    -0.020     (0)  
   CaHSO4+         1.272e-16   1.214e-16   -15.896   -15.916    -0.020     (0)  
Fe(2)         5.159e-08
   Fe+2            3.969e-08   3.315e-08    -7.401    -7.480    -0.078    -22.97
   FeHCO3+         1.152e-08   1.100e-08    -7.939    -7.959    -0.020     (0)  
   FeCO3           3.658e-10   3.659e-10    -9.437    -9.437     0.000     (0)  
   FeOH+           1.718e-11   1.641e-11   -10.765   -10.785    -0.020     (0)  
   FeSO4           2.022e-12   2.023e-12   -11.694   -11.694     0.000     33.65
   Fe(OH)2         1.884e-16   1.884e-16   -15.725   -15.725     0.000     (0)  
   FeHSO4+         3.510e-18   3.351e-18   -17.455   -17.475    -0.020     (0)  
   Fe(OH)3-        2.529e-20   2.416e-20   -19.597   -19.617    -0.020     (0)  
Fe(3)         2.171e-10
   Fe(OH)2+        1.692e-10   1.617e-10    -9.772    -9.791    -0.020     (0)  
   Fe(OH)3         4.763e-11   4.765e-11   -10.322   -10.322     0.000     (0)  
   FeOH+2          2.391e-13   1.992e-13   -12.621   -12.701    -0.079     (0)  
   Fe(OH)4-        1.084e-13   1.036e-13   -12.965   -12.985    -0.020     (0)  
   Fe+3            2.400e-17   1.624e-17   -16.620   -16.789    -0.170     (0)  
   FeSO4+          6.105e-20   5.833e-20   -19.214   -19.234    -0.020     (0)  
   Fe2(OH)2+4      3.698e-24   1.766e-24   -23.432   -23.753    -0.321     (0)  
   Fe(SO4)2-       5.465e-25   5.219e-25   -24.262   -24.282    -0.020     (0)  
   FeHSO4+2        4.962e-26   4.125e-26   -25.304   -25.385    -0.080     (0)  
   Fe3(OH)4+5      5.823e-31   1.835e-31   -30.235   -30.736    -0.502     (0)  
H(0)          1.056e-24
   H2              5.278e-25   5.280e-25   -24.278   -24.277     0.000     28.62
K             6.988e-06
   K+              6.980e-06   6.663e-06    -5.156    -5.176    -0.020      8.57
   KHCO3           8.102e-09   8.103e-09    -8.091    -8.091     0.000     40.94
   KSO4-           4.398e-11   4.207e-11   -10.357   -10.376    -0.019     12.87
Mg            5.035e-06
   Mg+2            4.874e-06   4.069e-06    -5.312    -5.391    -0.078    -21.34
   MgHCO3+         1.594e-07   1.522e-07    -6.798    -6.818    -0.020      5.07
   MgCO3           1.492e-09   1.493e-09    -8.826    -8.826     0.000    -17.08
   MgSO4           3.373e-10   3.376e-10    -9.472    -9.472     0.000    -12.74
   MgOH+           2.001e-11   1.914e-11   -10.699   -10.718    -0.019     (0)  
   Mg(SO4)2-2      7.144e-16   5.981e-16   -15.146   -15.223    -0.077     -4.19
Mn(2)         8.375e-09
   Mn+2            6.497e-09   5.425e-09    -8.187    -8.266    -0.078    -21.09
   MnHCO3+         1.679e-09   1.604e-09    -8.775    -8.795    -0.020     (0)  
   MnCO3           1.982e-10   1.983e-10    -9.703    -9.703     0.000     (0)  
   MnSO4           3.278e-13   3.280e-13   -12.484   -12.484     0.000     28.74
   MnOH+           2.104e-13   2.010e-13   -12.677   -12.697    -0.020     (0)  
   Mn(OH)3-        5.298e-24   5.062e-24   -23.276   -23.296    -0.020     (0)  
Mn(3)         4.184e-31
   Mn+3            4.184e-31   2.831e-31   -30.378   -30.548    -0.170     (0)  
Na            7.781e-05
   Na+             7.766e-05   7.418e-05    -4.110    -4.130    -0.020     -2.20
   NaHCO3          1.515e-07   1.516e-07    -6.820    -6.819     0.000     31.83
   NaSO4-          4.822e-10   4.608e-10    -9.317    -9.337    -0.020    -22.41
   NaOH            1.132e-22   1.133e-22   -21.946   -21.946     0.000     (0)  
O(0)          0.000e+00
   O2              0.000e+00   0.000e+00   -47.756   -47.756     0.000     29.33
S(6)          5.158e-07
   SO4-2           5.148e-07   4.289e-07    -6.288    -6.368    -0.079     14.01
   NaSO4-          4.822e-10   4.608e-10    -9.317    -9.337    -0.020    -22.41
   MgSO4           3.373e-10   3.376e-10    -9.472    -9.472     0.000    -12.74
   CaSO4           8.355e-11   8.358e-11   -10.078   -10.078     0.000      6.98
   KSO4-           4.398e-11   4.207e-11   -10.357   -10.376    -0.019     12.87
   HSO4-           8.808e-12   8.410e-12   -11.055   -11.075    -0.020     39.29
   FeSO4           2.022e-12   2.023e-12   -11.694   -11.694     0.000     33.65
   AlSO4+          5.025e-13   4.799e-13   -12.299   -12.319    -0.020     (0)  
   MnSO4           3.278e-13   3.280e-13   -12.484   -12.484     0.000     28.74
   Mg(SO4)2-2      7.144e-16   5.981e-16   -15.146   -15.223    -0.077     -4.19
   CaHSO4+         1.272e-16   1.214e-16   -15.896   -15.916    -0.020     (0)  
   Al(SO4)2-       6.440e-18   6.151e-18   -17.191   -17.211    -0.020     (0)  
   FeHSO4+         3.510e-18   3.351e-18   -17.455   -17.475    -0.020     (0)  
   FeSO4+          6.105e-20   5.833e-20   -19.214   -19.234    -0.020     (0)  
   AlHSO4+2        1.209e-20   1.005e-20   -19.918   -19.998    -0.080     (0)  
   Fe(SO4)2-       5.465e-25   5.219e-25   -24.262   -24.282    -0.020     (0)  
   FeHSO4+2        4.962e-26   4.125e-26   -25.304   -25.385    -0.080     (0)  
Si            1.005e-04
   H4SiO4          1.004e-04   1.005e-04    -3.998    -3.998     0.000     53.25
   H3SiO4-         3.889e-08   3.713e-08    -7.410    -7.430    -0.020     27.57
   H2SiO4-2        5.205e-15   4.340e-15   -14.284   -14.362    -0.079     (0)  

------------------------------Saturation indices-------------------------------

  Phase               SI** log IAP   log K(286 K,   1 atm)

  Al(OH)3(a)       -1.21     10.39   11.59  Al(OH)3
  Albite           -4.31    -23.08  -18.78  NaAlSi3O8
  Alunite          -6.62     -6.52    0.10  KAl3(SO4)2(OH)6
  Anhydrite        -8.13    -12.29   -4.15  CaSO4
  Anorthite        -7.77    -27.84  -20.06  CaAl2Si2O8
  Aragonite        -3.99    -12.26   -8.27  CaCO3
  Arcanite        -14.67    -16.72   -2.05  K2SO4
  Ca-Montmorillonite   1.73    -45.04  -46.77  Ca0.165Al2.33Si3.67O10(OH)2
  Calcite          -3.84    -12.26   -8.41  CaCO3
  Chalcedony       -0.31     -4.00   -3.69  SiO2
  Chlorite(14A)   -25.19     47.73   72.92  Mg5Al2Si3O10(OH)8
  Chrysotile      -18.34     15.37   33.71  Mg3Si2O5(OH)4
  CO2(g)           -1.32     -2.64   -1.32  CO2
  Dolomite         -7.07    -23.99  -16.92  CaMg(CO3)2
  Epsomite         -9.95    -11.76   -1.81  MgSO4:7H2O
  Fe(OH)3(a)       -1.91      2.98    4.89  Fe(OH)3
  Gibbsite          1.59     10.39    8.79  Al(OH)3
  Goethite          3.55      2.98   -0.57  FeOOH
  Gypsum           -7.70    -12.29   -4.59  CaSO4:2H2O
  H2(g)           -21.21    -24.28   -3.07  H2
  H2O(g)           -1.82     -0.00    1.82  H2O
  Hausmannite     -28.12     35.92   64.04  Mn3O4
  Hematite          9.05      5.96   -3.08  Fe2O3
  Hexahydrite     -10.18    -11.76   -1.58  MgSO4:6H2O
  Illite           -0.46    -42.36  -41.90  K0.6Mg0.25Al2.3Si3.5O10(OH)2
  Jarosite-K      -20.47    -28.74   -8.27  KFe3(SO4)2(OH)6
  K-feldspar       -2.63    -24.13  -21.50  KAlSi3O8
  K-mica            6.10     20.58   14.48  KAl3Si3O10(OH)2
  Kaolinite         4.29     12.78    8.49  Al2Si2O5(OH)4
  Kieserite       -10.49    -11.76   -1.27  MgSO4:H2O
  Manganite        -9.84     15.50   25.34  MnOOH
  Melanterite     -11.49    -13.85   -2.36  FeSO4:7H2O
  Mirabilite      -12.83    -14.63   -1.79  Na2SO4:10H2O
  O2(g)           -44.96    -47.76   -2.80  O2
  Pyrochroite     -10.29      4.91   15.20  Mn(OH)2
  Pyrolusite      -17.24     26.09   43.33  MnO2:H2O
  Quartz            0.16     -4.00   -4.16  SiO2
  Rhodochrosite    -3.52    -14.60  -11.09  MnCO3
  Sepiolite       -12.49      3.59   16.08  Mg2Si3O7.5OH:3H2O
  Sepiolite(d)    -15.07      3.59   18.66  Mg2Si3O7.5OH:3H2O
  Siderite         -3.00    -13.82  -10.82  FeCO3
  SiO2(a)          -1.19     -4.00   -2.81  SiO2
  Talc            -15.41      7.38   22.79  Mg3Si4O10(OH)2
  Thenardite      -14.38    -14.63   -0.24  Na2SO4

**For a gas, SI = log10(fugacity). Fugacity = pressure * phi / 1 atm.
  For ideal gases, phi = 1.

Initial solution 43.	NEP22-12

WARNING: Equivalent wt for alkalinity should be Ca.5(CO3).5. Using 50.0455 g/eq.
-----------------------------Solution composition------------------------------

	Elements           Molality       Moles

	Al                5.648e-08   5.648e-08
	Alkalinity        3.465e-03   3.465e-03
	Ca                1.453e-05   1.453e-05
	Fe                2.320e-08   2.320e-08
	K                 3.214e-06   3.214e-06
	Mg                5.161e-06   5.161e-06
	Mn                2.367e-09   2.367e-09
	Na                4.775e-05   4.775e-05
	S(6)              7.540e-07   7.540e-07
	Si                8.312e-05   8.312e-05

----------------------------Description of solution----------------------------

                                       pH  =   6.770    
                                       pe  =   4.000    
      Specific Conductance (µS/cm,  13°C)  = 111
                          Density (g/cm³)  =   0.99948
                               Volume (L)  =   1.00081
                        Viscosity (mPa s)  =   1.18939
                        Activity of water  =   1.000
                 Ionic strength (mol/kgw)  =   1.799e-03
                       Mass of water (kg)  =   1.000e+00
                    Total carbon (mol/kg)  =   4.985e-03
                       Total CO2 (mol/kg)  =   4.985e-03
                         Temperature (°C)  =  13.40
                  Electrical balance (eq)  =  -3.376e-03
 Percent error, 100*(Cat-|An|)/(Cat+|An|)  = -94.93
                               Iterations  =  10 (28 overall)
                                  Total H  = 1.110162e+02
                                  Total O  = 5.551999e+01

----------------------------Distribution of species----------------------------

                                               Log       Log       Log    mole V
   Species          Molality    Activity  Molality  Activity     Gamma   cm³/mol

   H+              1.774e-07   1.698e-07    -6.751    -6.770    -0.019      0.00
   OH-             2.442e-08   2.331e-08    -7.612    -7.632    -0.020     -4.73
   H2O             5.551e+01   9.999e-01     1.744    -0.000     0.000     18.03
Al            5.648e-08
   Al(OH)4-        3.995e-08   3.816e-08    -7.398    -7.418    -0.020     (0)  
   Al(OH)2+        1.176e-08   1.124e-08    -7.930    -7.949    -0.020     (0)  
   Al(OH)3         3.866e-09   3.867e-09    -8.413    -8.413     0.000     (0)  
   AlOH+2          8.653e-10   7.214e-10    -9.063    -9.142    -0.079    -27.30
   Al+3            3.954e-11   2.674e-11   -10.403   -10.573    -0.170    -41.41
   AlSO4+          4.740e-14   4.527e-14   -13.324   -13.344    -0.020     (0)  
   Al(SO4)2-       8.873e-19   8.474e-19   -18.052   -18.072    -0.020     (0)  
   AlHSO4+2        7.542e-22   6.267e-22   -21.123   -21.203    -0.080     (0)  
C(4)          4.985e-03
   HCO3-           3.463e-03   3.309e-03    -2.461    -2.480    -0.020     23.37
   CO2             1.520e-03   1.520e-03    -2.818    -2.818     0.000     33.85
   CO3-2           8.357e-07   6.967e-07    -6.078    -6.157    -0.079     -5.51
   MgHCO3+         1.629e-07   1.555e-07    -6.788    -6.808    -0.020      5.08
   CaHCO3+         9.406e-08   8.991e-08    -7.027    -7.046    -0.020    122.11
   NaHCO3          9.302e-08   9.310e-08    -7.031    -7.031     0.000     31.83
   (CO2)2          2.816e-08   2.817e-08    -7.550    -7.550     0.000     67.69
   CaCO3           1.176e-08   1.177e-08    -7.930    -7.929     0.000    -14.64
   FeHCO3+         5.092e-09   4.861e-09    -8.293    -8.313    -0.020     (0)  
   KHCO3           3.724e-09   3.724e-09    -8.429    -8.429     0.000     40.94
   MgCO3           2.318e-09   2.319e-09    -8.635    -8.635     0.000    -17.08
   MnHCO3+         4.678e-10   4.469e-10    -9.330    -9.350    -0.020     (0)  
   FeCO3           2.454e-10   2.455e-10    -9.610    -9.610     0.000     (0)  
   MnCO3           8.381e-11   8.385e-11   -10.077   -10.077     0.000     (0)  
Ca            1.453e-05
   Ca+2            1.442e-05   1.202e-05    -4.841    -4.920    -0.079    -18.31
   CaHCO3+         9.406e-08   8.991e-08    -7.027    -7.046    -0.020    122.11
   CaCO3           1.176e-08   1.177e-08    -7.930    -7.929     0.000    -14.64
   CaSO4           1.222e-09   1.222e-09    -8.913    -8.913     0.000      6.98
   CaOH+           1.230e-11   1.174e-11   -10.910   -10.930    -0.020     (0)  
   CaHSO4+         1.230e-15   1.174e-15   -14.910   -14.930    -0.020     (0)  
Fe(2)         2.295e-08
   Fe+2            1.760e-08   1.469e-08    -7.755    -7.833    -0.078    -22.96
   FeHCO3+         5.092e-09   4.861e-09    -8.293    -8.313    -0.020     (0)  
   FeCO3           2.454e-10   2.455e-10    -9.610    -9.610     0.000     (0)  
   FeOH+           1.162e-11   1.110e-11   -10.935   -10.955    -0.020     (0)  
   FeSO4           1.311e-12   1.312e-12   -11.882   -11.882     0.000     33.50
   Fe(OH)2         1.946e-16   1.947e-16   -15.711   -15.711     0.000     (0)  
   FeHSO4+         1.503e-18   1.435e-18   -17.823   -17.843    -0.020     (0)  
   Fe(OH)3-        3.960e-20   3.783e-20   -19.402   -19.422    -0.020     (0)  
Fe(3)         2.498e-10
   Fe(OH)2+        1.746e-10   1.668e-10    -9.758    -9.778    -0.020     (0)  
   Fe(OH)3         7.475e-11   7.478e-11   -10.126   -10.126     0.000     (0)  
   Fe(OH)4-        2.587e-13   2.472e-13   -12.587   -12.607    -0.020     (0)  
   FeOH+2          1.624e-13   1.353e-13   -12.789   -12.869    -0.079     (0)  
   Fe+3            1.071e-17   7.241e-18   -16.970   -17.140    -0.170     (0)  
   FeSO4+          3.983e-20   3.805e-20   -19.400   -19.420    -0.020     (0)  
   Fe2(OH)2+4      1.700e-24   8.108e-25   -23.770   -24.091    -0.322     (0)  
   Fe(SO4)2-       5.208e-25   4.972e-25   -24.283   -24.303    -0.020     (0)  
   FeHSO4+2        2.139e-26   1.777e-26   -25.670   -25.750    -0.080     (0)  
   Fe3(OH)4+5      2.737e-31   8.608e-32   -30.563   -31.065    -0.502     (0)  
H(0)          4.603e-25
   H2              2.302e-25   2.302e-25   -24.638   -24.638     0.000     28.62
K             3.214e-06
   K+              3.211e-06   3.065e-06    -5.493    -5.514    -0.020      8.57
   KHCO3           3.724e-09   3.724e-09    -8.429    -8.429     0.000     40.94
   KSO4-           2.954e-11   2.825e-11   -10.530   -10.549    -0.019     12.89
Mg            5.161e-06
   Mg+2            4.995e-06   4.168e-06    -5.301    -5.380    -0.079    -21.35
   MgHCO3+         1.629e-07   1.555e-07    -6.788    -6.808    -0.020      5.08
   MgCO3           2.318e-09   2.319e-09    -8.635    -8.635     0.000    -17.08
   MgSO4           5.058e-10   5.062e-10    -9.296    -9.296     0.000    -12.69
   MgOH+           3.134e-11   2.996e-11   -10.504   -10.523    -0.019     (0)  
   Mg(SO4)2-2      1.561e-15   1.307e-15   -14.807   -14.884    -0.077     -4.15
Mn(2)         2.367e-09
   Mn+2            1.815e-09   1.515e-09    -8.741    -8.820    -0.078    -21.09
   MnHCO3+         4.678e-10   4.469e-10    -9.330    -9.350    -0.020     (0)  
   MnCO3           8.381e-11   8.385e-11   -10.077   -10.077     0.000     (0)  
   MnSO4           1.339e-13   1.340e-13   -12.873   -12.873     0.000     28.68
   MnOH+           8.974e-14   8.573e-14   -13.047   -13.067    -0.020     (0)  
   Mn(OH)3-        5.131e-24   4.902e-24   -23.290   -23.310    -0.020     (0)  
Mn(3)         1.188e-31
   Mn+3            1.188e-31   8.034e-32   -30.925   -31.095    -0.170     (0)  
Na            4.775e-05
   Na+             4.765e-05   4.551e-05    -4.322    -4.342    -0.020     -2.20
   NaHCO3          9.302e-08   9.310e-08    -7.031    -7.031     0.000     31.83
   NaSO4-          4.324e-10   4.132e-10    -9.364    -9.384    -0.020    -22.38
   NaOH            1.060e-22   1.061e-22   -21.975   -21.974     0.000     (0)  
O(0)          0.000e+00
   O2              0.000e+00   0.000e+00   -47.000   -47.000     0.000     29.34
S(6)          7.540e-07
   SO4-2           7.518e-07   6.261e-07    -6.124    -6.203    -0.079     14.04
   CaSO4           1.222e-09   1.222e-09    -8.913    -8.913     0.000      6.98
   MgSO4           5.058e-10   5.062e-10    -9.296    -9.296     0.000    -12.69
   NaSO4-          4.324e-10   4.132e-10    -9.364    -9.384    -0.020    -22.38
   KSO4-           2.954e-11   2.825e-11   -10.530   -10.549    -0.019     12.89
   HSO4-           8.512e-12   8.127e-12   -11.070   -11.090    -0.020     39.30
   FeSO4           1.311e-12   1.312e-12   -11.882   -11.882     0.000     33.50
   MnSO4           1.339e-13   1.340e-13   -12.873   -12.873     0.000     28.68
   AlSO4+          4.740e-14   4.527e-14   -13.324   -13.344    -0.020     (0)  
   Mg(SO4)2-2      1.561e-15   1.307e-15   -14.807   -14.884    -0.077     -4.15
   CaHSO4+         1.230e-15   1.174e-15   -14.910   -14.930    -0.020     (0)  
   FeHSO4+         1.503e-18   1.435e-18   -17.823   -17.843    -0.020     (0)  
   Al(SO4)2-       8.873e-19   8.474e-19   -18.052   -18.072    -0.020     (0)  
   FeSO4+          3.983e-20   3.805e-20   -19.400   -19.420    -0.020     (0)  
   AlHSO4+2        7.542e-22   6.267e-22   -21.123   -21.203    -0.080     (0)  
   Fe(SO4)2-       5.208e-25   4.972e-25   -24.283   -24.303    -0.020     (0)  
   FeHSO4+2        2.139e-26   1.777e-26   -25.670   -25.750    -0.080     (0)  
Si            8.312e-05
   H4SiO4          8.307e-05   8.311e-05    -4.081    -4.080     0.000     53.24
   H3SiO4-         4.888e-08   4.667e-08    -7.311    -7.331    -0.020     27.58
   H2SiO4-2        9.979e-15   8.319e-15   -14.001   -14.080    -0.079     (0)  

------------------------------Saturation indices-------------------------------

  Phase               SI** log IAP   log K(286 K,   1 atm)

  Al(OH)3(a)       -1.85      9.74   11.59  Al(OH)3
  Albite           -5.23    -24.00  -18.77  NaAlSi3O8
  Alunite          -9.11     -9.02    0.09  KAl3(SO4)2(OH)6
  Anhydrite        -6.97    -11.12   -4.16  CaSO4
  Anorthite        -7.86    -27.92  -20.06  CaAl2Si2O8
  Aragonite        -2.81    -11.08   -8.27  CaCO3
  Arcanite        -15.18    -17.23   -2.05  K2SO4
  Ca-Montmorillonite   0.15    -46.61  -46.76  Ca0.165Al2.33Si3.67O10(OH)2
  Calcite          -2.66    -11.08   -8.41  CaCO3
  Chalcedony       -0.39     -4.08   -3.69  SiO2
  Chlorite(14A)   -24.84     48.03   72.88  Mg5Al2Si3O10(OH)8
  Chrysotile      -17.38     16.32   33.69  Mg3Si2O5(OH)4
  CO2(g)           -1.50     -2.82   -1.32  CO2
  Dolomite         -5.70    -22.61  -16.92  CaMg(CO3)2
  Epsomite         -9.77    -11.58   -1.81  MgSO4:7H2O
  Fe(OH)3(a)       -1.72      3.17    4.89  Fe(OH)3
  Gibbsite          0.95      9.74    8.79  Al(OH)3
  Goethite          3.74      3.17   -0.57  FeOOH
  Gypsum           -6.53    -11.12   -4.59  CaSO4:2H2O
  H2(g)           -21.57    -24.64   -3.07  H2
  H2O(g)           -1.81     -0.00    1.81  H2O
  Hausmannite     -28.32     35.70   64.02  Mn3O4
  Hematite          9.43      6.34   -3.09  Fe2O3
  Hexahydrite     -10.00    -11.58   -1.58  MgSO4:6H2O
  Illite           -2.23    -44.12  -41.89  K0.6Mg0.25Al2.3Si3.5O10(OH)2
  Jarosite-K      -20.44    -28.72   -8.28  KFe3(SO4)2(OH)6
  K-feldspar       -3.69    -25.17  -21.49  KAlSi3O8
  K-mica            3.76     18.23   14.46  KAl3Si3O10(OH)2
  Kaolinite         2.83     11.31    8.48  Al2Si2O5(OH)4
  Kieserite       -10.32    -11.58   -1.27  MgSO4:H2O
  Manganite        -9.85     15.49   25.34  MnOOH
  Melanterite     -11.68    -14.04   -2.36  FeSO4:7H2O
  Mirabilite      -13.10    -14.89   -1.79  Na2SO4:10H2O
  O2(g)           -44.20    -47.00   -2.80  O2
  Pyrochroite     -10.48      4.72   15.20  Mn(OH)2
  Pyrolusite      -17.05     26.26   43.31  MnO2:H2O
  Quartz            0.08     -4.08   -4.16  SiO2
  Rhodochrosite    -3.89    -14.98  -11.09  MnCO3
  Sepiolite       -12.00      4.08   16.08  Mg2Si3O7.5OH:3H2O
  Sepiolite(d)    -14.58      4.08   18.66  Mg2Si3O7.5OH:3H2O
  Siderite         -3.17    -13.99  -10.82  FeCO3
  SiO2(a)          -1.27     -4.08   -2.81  SiO2
  Talc            -14.62      8.16   22.77  Mg3Si4O10(OH)2
  Thenardite      -14.64    -14.89   -0.25  Na2SO4

**For a gas, SI = log10(fugacity). Fugacity = pressure * phi / 1 atm.
  For ideal gases, phi = 1.

Initial solution 44.	NEP22-13

WARNING: Equivalent wt for alkalinity should be Ca.5(CO3).5. Using 50.0455 g/eq.
-----------------------------Solution composition------------------------------

	Elements           Molality       Moles

	Al                1.406e-07   1.406e-07
	Alkalinity        3.144e-03   3.144e-03
	Ca                5.841e-06   5.841e-06
	Fe                3.786e-08   3.786e-08
	K                 7.541e-06   7.541e-06
	Mg                7.211e-06   7.211e-06
	Mn                4.005e-09   4.005e-09
	Na                6.542e-05   6.542e-05
	S(6)              1.591e-06   1.591e-06
	Si                8.582e-05   8.582e-05

----------------------------Description of solution----------------------------

                                       pH  =   6.760    
                                       pe  =   4.000    
      Specific Conductance (µS/cm,  15°C)  = 107
                          Density (g/cm³)  =   0.99924
                               Volume (L)  =   1.00103
                        Viscosity (mPa s)  =   1.13924
                        Activity of water  =   1.000
                 Ionic strength (mol/kgw)  =   1.638e-03
                       Mass of water (kg)  =   1.000e+00
                    Total carbon (mol/kg)  =   4.514e-03
                       Total CO2 (mol/kg)  =   4.514e-03
                         Temperature (°C)  =  15.00
                  Electrical balance (eq)  =  -3.048e-03
 Percent error, 100*(Cat-|An|)/(Cat+|An|)  = -93.90
                               Iterations  =  10 (38 overall)
                                  Total H  = 1.110159e+02
                                  Total O  = 5.551874e+01

----------------------------Distribution of species----------------------------

                                               Log       Log       Log    mole V
   Species          Molality    Activity  Molality  Activity     Gamma   cm³/mol

   H+              1.812e-07   1.738e-07    -6.742    -6.760    -0.018      0.00
   OH-             2.730e-08   2.610e-08    -7.564    -7.583    -0.019     -4.62
   H2O             5.551e+01   9.999e-01     1.744    -0.000     0.000     18.03
Al            1.406e-07
   Al(OH)4-        1.018e-07   9.739e-08    -6.992    -7.011    -0.019     (0)  
   Al(OH)2+        2.706e-08   2.591e-08    -7.568    -7.587    -0.019     (0)  
   Al(OH)3         9.985e-09   9.988e-09    -8.001    -8.001     0.000     (0)  
   AlOH+2          1.729e-09   1.452e-09    -8.762    -8.838    -0.076    -27.36
   Al+3            7.193e-11   4.938e-11   -10.143   -10.306    -0.163    -41.53
   AlSO4+          1.900e-13   1.818e-13   -12.721   -12.740    -0.019     (0)  
   Al(SO4)2-       7.624e-18   7.295e-18   -17.118   -17.137    -0.019     (0)  
   AlHSO4+2        3.104e-21   2.600e-21   -20.508   -20.585    -0.077     (0)  
C(4)          4.514e-03
   HCO3-           3.142e-03   3.008e-03    -2.503    -2.522    -0.019     23.58
   CO2             1.371e-03   1.371e-03    -2.863    -2.863     0.000     33.93
   CO3-2           7.685e-07   6.454e-07    -6.114    -6.190    -0.076     -5.22
   MgHCO3+         2.092e-07   2.001e-07    -6.679    -6.699    -0.019      5.14
   NaHCO3          1.219e-07   1.220e-07    -6.914    -6.914     0.000     31.82
   CaHCO3+         3.727e-08   3.569e-08    -7.429    -7.447    -0.019    122.20
   (CO2)2          2.432e-08   2.432e-08    -7.614    -7.614     0.000     67.86
   KHCO3           8.182e-09   8.183e-09    -8.087    -8.087     0.000     40.95
   FeHCO3+         7.723e-09   7.388e-09    -8.112    -8.131    -0.019     (0)  
   CaCO3           4.492e-09   4.493e-09    -8.348    -8.347     0.000    -14.63
   MgCO3           3.106e-09   3.107e-09    -8.508    -8.508     0.000    -17.08
   MnHCO3+         7.377e-10   7.060e-10    -9.132    -9.151    -0.019     (0)  
   FeCO3           3.801e-10   3.803e-10    -9.420    -9.420     0.000     (0)  
   MnCO3           1.350e-10   1.350e-10    -9.870    -9.870     0.000     (0)  
Ca            5.841e-06
   Ca+2            5.798e-06   4.868e-06    -5.237    -5.313    -0.076    -18.27
   CaHCO3+         3.727e-08   3.569e-08    -7.429    -7.447    -0.019    122.20
   CaCO3           4.492e-09   4.493e-09    -8.348    -8.347     0.000    -14.63
   CaSO4           1.066e-09   1.066e-09    -8.972    -8.972     0.000      7.06
   CaOH+           4.860e-12   4.649e-12   -11.313   -11.333    -0.019     (0)  
   CaHSO4+         1.117e-15   1.068e-15   -14.952   -14.971    -0.019     (0)  
Fe(2)         3.734e-08
   Fe+2            2.921e-08   2.456e-08    -7.534    -7.610    -0.075    -22.83
   FeHCO3+         7.723e-09   7.388e-09    -8.112    -8.131    -0.019     (0)  
   FeCO3           3.801e-10   3.803e-10    -9.420    -9.420     0.000     (0)  
   FeOH+           2.155e-11   2.063e-11   -10.666   -10.686    -0.019     (0)  
   FeSO4           4.811e-12   4.812e-12   -11.318   -11.318     0.000     31.17
   Fe(OH)2         4.106e-16   4.107e-16   -15.387   -15.386     0.000     (0)  
   FeHSO4+         5.634e-18   5.390e-18   -17.249   -17.268    -0.019     (0)  
   Fe(OH)3-        8.288e-20   7.932e-20   -19.082   -19.101    -0.019     (0)  
Fe(3)         5.255e-10
   Fe(OH)2+        3.614e-10   3.459e-10    -9.442    -9.461    -0.019     (0)  
   Fe(OH)3         1.633e-10   1.633e-10    -9.787    -9.787     0.000     (0)  
   Fe(OH)4-        5.907e-13   5.655e-13   -12.229   -12.248    -0.019     (0)  
   FeOH+2          3.204e-13   2.688e-13   -12.494   -12.571    -0.076     (0)  
   Fe+3            1.938e-17   1.331e-17   -16.713   -16.876    -0.163     (0)  
   FeSO4+          1.614e-19   1.545e-19   -18.792   -18.811    -0.019     (0)  
   Fe2(OH)2+4      6.066e-24   2.983e-24   -23.217   -23.525    -0.308     (0)  
   Fe(SO4)2-       4.517e-24   4.321e-24   -23.345   -23.364    -0.019     (0)  
   FeHSO4+2        8.758e-26   7.334e-26   -25.058   -25.135    -0.077     (0)  
   Fe3(OH)4+5      1.698e-30   5.600e-31   -29.770   -30.252    -0.482     (0)  
H(0)          4.738e-25
   H2              2.369e-25   2.370e-25   -24.625   -24.625     0.000     28.62
K             7.541e-06
   K+              7.533e-06   7.204e-06    -5.123    -5.142    -0.019      8.64
   KHCO3           8.182e-09   8.183e-09    -8.087    -8.087     0.000     40.95
   KSO4-           1.478e-10   1.416e-10    -9.830    -9.849    -0.019     13.10
Mg            7.211e-06
   Mg+2            6.997e-06   5.882e-06    -5.155    -5.231    -0.075    -21.42
   MgHCO3+         2.092e-07   2.001e-07    -6.679    -6.699    -0.019      5.14
   MgCO3           3.106e-09   3.107e-09    -8.508    -8.508     0.000    -17.08
   MgSO4           1.582e-09   1.583e-09    -8.801    -8.800     0.000    -11.92
   MgOH+           5.039e-11   4.827e-11   -10.298   -10.316    -0.019     (0)  
   Mg(SO4)2-2      9.982e-15   8.413e-15   -14.001   -14.075    -0.074     -4.28
Mn(2)         4.005e-09
   Mn+2            3.132e-09   2.634e-09    -8.504    -8.579    -0.075    -21.07
   MnHCO3+         7.377e-10   7.060e-10    -9.132    -9.151    -0.019     (0)  
   MnCO3           1.350e-10   1.350e-10    -9.870    -9.870     0.000     (0)  
   MnSO4           5.116e-13   5.118e-13   -12.291   -12.291     0.000     27.69
   MnOH+           1.751e-13   1.676e-13   -12.757   -12.776    -0.019     (0)  
   Mn(OH)3-        8.308e-24   7.951e-24   -23.081   -23.100    -0.019     (0)  
Mn(3)         2.616e-31
   Mn+3            2.616e-31   1.796e-31   -30.582   -30.746    -0.163     (0)  
Na            6.542e-05
   Na+             6.530e-05   6.249e-05    -4.185    -4.204    -0.019     -2.08
   NaHCO3          1.219e-07   1.220e-07    -6.914    -6.914     0.000     31.82
   NaSO4-          1.284e-09   1.229e-09    -8.891    -8.910    -0.019    -22.15
   NaOH            1.630e-22   1.631e-22   -21.788   -21.788     0.000     (0)  
O(0)          0.000e+00
   O2              0.000e+00   0.000e+00   -46.469   -46.469     0.000     29.51
S(6)          1.591e-06
   SO4-2           1.587e-06   1.331e-06    -5.799    -5.876    -0.076     14.31
   MgSO4           1.582e-09   1.583e-09    -8.801    -8.800     0.000    -11.92
   NaSO4-          1.284e-09   1.229e-09    -8.891    -8.910    -0.019    -22.15
   CaSO4           1.066e-09   1.066e-09    -8.972    -8.972     0.000      7.06
   KSO4-           1.478e-10   1.416e-10    -9.830    -9.849    -0.019     13.10
   HSO4-           1.908e-11   1.825e-11   -10.719   -10.739    -0.019     39.46
   FeSO4           4.811e-12   4.812e-12   -11.318   -11.318     0.000     31.17
   MnSO4           5.116e-13   5.118e-13   -12.291   -12.291     0.000     27.69
   AlSO4+          1.900e-13   1.818e-13   -12.721   -12.740    -0.019     (0)  
   Mg(SO4)2-2      9.982e-15   8.413e-15   -14.001   -14.075    -0.074     -4.28
   CaHSO4+         1.117e-15   1.068e-15   -14.952   -14.971    -0.019     (0)  
   Al(SO4)2-       7.624e-18   7.295e-18   -17.118   -17.137    -0.019     (0)  
   FeHSO4+         5.634e-18   5.390e-18   -17.249   -17.268    -0.019     (0)  
   FeSO4+          1.614e-19   1.545e-19   -18.792   -18.811    -0.019     (0)  
   AlHSO4+2        3.104e-21   2.600e-21   -20.508   -20.585    -0.077     (0)  
   Fe(SO4)2-       4.517e-24   4.321e-24   -23.345   -23.364    -0.019     (0)  
   FeHSO4+2        8.758e-26   7.334e-26   -25.058   -25.135    -0.077     (0)  
Si            8.582e-05
   H4SiO4          8.576e-05   8.580e-05    -4.067    -4.067     0.000     53.05
   H3SiO4-         5.248e-08   5.020e-08    -7.280    -7.299    -0.019     27.65
   H2SiO4-2        1.172e-14   9.844e-15   -13.931   -14.007    -0.076     (0)  

------------------------------Saturation indices-------------------------------

  Phase               SI** log IAP   log K(288 K,   1 atm)

  Al(OH)3(a)       -1.50      9.97   11.47  Al(OH)3
  Albite           -4.75    -23.42  -18.66  NaAlSi3O8
  Alunite          -7.13     -7.25   -0.12  KAl3(SO4)2(OH)6
  Anhydrite        -7.02    -11.19   -4.17  CaSO4
  Anorthite        -7.46    -27.47  -20.01  CaAl2Si2O8
  Aragonite        -3.22    -11.50   -8.28  CaCO3
  Arcanite        -14.14    -16.16   -2.02  K2SO4
  Ca-Montmorillonite   0.85    -45.66  -46.51  Ca0.165Al2.33Si3.67O10(OH)2
  Calcite          -3.08    -11.50   -8.42  CaCO3
  Chalcedony       -0.39     -4.07   -3.67  SiO2
  Chlorite(14A)   -23.04     49.19   72.23  Mg5Al2Si3O10(OH)8
  Chrysotile      -16.75     16.74   33.48  Mg3Si2O5(OH)4
  CO2(g)           -1.52     -2.86   -1.34  CO2
  Dolomite         -5.99    -22.92  -16.94  CaMg(CO3)2
  Epsomite         -9.31    -11.11   -1.80  MgSO4:7H2O
  Fe(OH)3(a)       -1.49      3.40    4.89  Fe(OH)3
  Gibbsite          1.28      9.97    8.69  Al(OH)3
  Goethite          4.04      3.40   -0.63  FeOOH
  Gypsum           -6.60    -11.19   -4.59  CaSO4:2H2O
  H2(g)           -21.55    -24.63   -3.07  H2
  H2O(g)           -1.77     -0.00    1.77  H2O
  Hausmannite     -27.25     36.34   63.59  Mn3O4
  Hematite         10.03      6.81   -3.22  Fe2O3
  Hexahydrite      -9.53    -11.11   -1.58  MgSO4:6H2O
  Illite           -1.21    -42.86  -41.66  K0.6Mg0.25Al2.3Si3.5O10(OH)2
  Jarosite-K      -18.55    -26.96   -8.41  KFe3(SO4)2(OH)6
  K-feldspar       -3.00    -24.35  -21.36  KAlSi3O8
  K-mica            5.13     19.34   14.21  KAl3Si3O10(OH)2
  Kaolinite         3.48     11.81    8.33  Al2Si2O5(OH)4
  Kieserite        -9.86    -11.11   -1.25  MgSO4:H2O
  Manganite        -9.64     15.70   25.34  MnOOH
  Melanterite     -11.15    -13.49   -2.34  FeSO4:7H2O
  Mirabilite      -12.58    -14.28   -1.71  Na2SO4:10H2O
  O2(g)           -43.66    -46.47   -2.81  O2
  Pyrochroite     -10.26      4.94   15.20  Mn(OH)2
  Pyrolusite      -16.58     26.46   43.04  MnO2:H2O
  Quartz            0.07     -4.07   -4.13  SiO2
  Rhodochrosite    -3.68    -14.77  -11.09  MnCO3
  Sepiolite       -11.65      4.38   16.03  Mg2Si3O7.5OH:3H2O
  Sepiolite(d)    -14.28      4.38   18.66  Mg2Si3O7.5OH:3H2O
  Siderite         -2.97    -13.80  -10.83  FeCO3
  SiO2(a)          -1.27     -4.07   -2.80  SiO2
  Talc            -13.98      8.60   22.58  Mg3Si4O10(OH)2
  Thenardite      -14.03    -14.28   -0.25  Na2SO4

**For a gas, SI = log10(fugacity). Fugacity = pressure * phi / 1 atm.
  For ideal gases, phi = 1.

Initial solution 45.	NEP22-15

WARNING: Equivalent wt for alkalinity should be Ca.5(CO3).5. Using 50.0455 g/eq.
-----------------------------Solution composition------------------------------

	Elements           Molality       Moles

	Al                3.378e-08   3.378e-08
	Alkalinity        5.006e-03   5.006e-03
	Ca                4.996e-05   4.996e-05
	Fe                4.969e-08   4.969e-08
	K                 1.001e-05   1.001e-05
	Mg                1.354e-05   1.354e-05
	Mn                4.006e-09   4.006e-09
	Na                1.047e-04   1.047e-04
	S(6)              2.680e-06   2.680e-06
	Si                1.120e-04   1.120e-04

----------------------------Description of solution----------------------------

                                       pH  =   7.290    
                                       pe  =   4.000    
      Specific Conductance (µS/cm,  15°C)  = 171
                          Density (g/cm³)  =   0.99936
                               Volume (L)  =   1.00099
                        Viscosity (mPa s)  =   1.15239
                        Activity of water  =   1.000
                 Ionic strength (mol/kgw)  =   2.694e-03
                       Mass of water (kg)  =   1.000e+00
                    Total carbon (mol/kg)  =   5.642e-03
                       Total CO2 (mol/kg)  =   5.642e-03
                         Temperature (°C)  =  14.60
                  Electrical balance (eq)  =  -4.770e-03
 Percent error, 100*(Cat-|An|)/(Cat+|An|)  = -90.86
                               Iterations  =   8 (46 overall)
                                  Total H  = 1.110179e+02
                                  Total O  = 5.552296e+01

----------------------------Distribution of species----------------------------

                                               Log       Log       Log    mole V
   Species          Molality    Activity  Molality  Activity     Gamma   cm³/mol

   OH-             9.048e-08   8.550e-08    -7.043    -7.068    -0.025     -4.63
   H+              5.402e-08   5.129e-08    -7.267    -7.290    -0.023      0.00
   H2O             5.551e+01   9.999e-01     1.744    -0.000     0.000     18.03
Al            3.378e-08
   Al(OH)4-        3.207e-08   3.033e-08    -7.494    -7.518    -0.024     (0)  
   Al(OH)3         9.203e-10   9.209e-10    -9.036    -9.036     0.000     (0)  
   Al(OH)2+        7.703e-10   7.292e-10    -9.113    -9.137    -0.024     (0)  
   AlOH+2          1.563e-11   1.255e-11   -10.806   -10.901    -0.095    -27.32
   Al+3            2.066e-13   1.294e-13   -12.685   -12.888    -0.203    -41.44
   AlSO4+          8.016e-16   7.582e-16   -15.096   -15.120    -0.024     (0)  
   Al(SO4)2-       5.137e-20   4.859e-20   -19.289   -19.313    -0.024     (0)  
   AlHSO4+2        3.994e-24   3.192e-24   -23.399   -23.496    -0.097     (0)  
C(4)          5.642e-03
   HCO3-           4.996e-03   4.729e-03    -2.301    -2.325    -0.024     23.54
   CO2             6.407e-04   6.410e-04    -3.193    -3.193     0.000     33.91
   CO3-2           4.238e-06   3.403e-06    -5.373    -5.468    -0.095     -5.25
   MgHCO3+         5.873e-07   5.553e-07    -6.231    -6.255    -0.024      5.14
   CaHCO3+         4.724e-07   4.474e-07    -6.326    -6.349    -0.024    122.18
   NaHCO3          2.990e-07   2.994e-07    -6.524    -6.524     0.001     31.82
   CaCO3           1.915e-07   1.916e-07    -6.718    -6.718     0.000    -14.64
   MgCO3           2.874e-08   2.875e-08    -7.542    -7.541     0.000    -17.08
   KHCO3           1.674e-08   1.674e-08    -7.776    -7.776     0.000     40.95
   FeHCO3+         1.115e-08   1.054e-08    -7.953    -7.977    -0.024     (0)  
   (CO2)2          5.234e-09   5.238e-09    -8.281    -8.281     0.000     67.82
   FeCO3           1.819e-09   1.820e-09    -8.740    -8.740     0.000     (0)  
   MnHCO3+         9.107e-10   8.617e-10    -9.041    -9.065    -0.024     (0)  
   MnCO3           5.523e-10   5.526e-10    -9.258    -9.258     0.000     (0)  
Ca            4.996e-05
   Ca+2            4.928e-05   3.955e-05    -4.307    -4.403    -0.096    -18.25
   CaHCO3+         4.724e-07   4.474e-07    -6.326    -6.349    -0.024    122.18
   CaCO3           1.915e-07   1.916e-07    -6.718    -6.718     0.000    -14.64
   CaSO4           1.381e-08   1.382e-08    -7.860    -7.859     0.000      7.04
   CaOH+           1.354e-10   1.280e-10    -9.869    -9.893    -0.024     (0)  
   CaHSO4+         4.301e-15   4.067e-15   -14.366   -14.391    -0.024     (0)  
Fe(2)         4.075e-08
   Fe+2            2.771e-08   2.229e-08    -7.557    -7.652    -0.094    -22.83
   FeHCO3+         1.115e-08   1.054e-08    -7.953    -7.977    -0.024     (0)  
   FeCO3           1.819e-09   1.820e-09    -8.740    -8.740     0.000     (0)  
   FeOH+           6.493e-11   6.144e-11   -10.188   -10.212    -0.024     (0)  
   FeSO4           6.932e-12   6.936e-12   -11.159   -11.159     0.000     31.74
   Fe(OH)2         3.991e-15   3.994e-15   -14.399   -14.399     0.000     (0)  
   Fe(OH)3-        2.750e-18   2.602e-18   -17.561   -17.585    -0.024     (0)  
   FeHSO4+         2.424e-18   2.292e-18   -17.615   -17.640    -0.024     (0)  
Fe(3)         8.935e-09
   Fe(OH)3         5.301e-09   5.304e-09    -8.276    -8.275     0.000     (0)  
   Fe(OH)2+        3.569e-09   3.378e-09    -8.448    -8.471    -0.024     (0)  
   Fe(OH)4-        6.461e-11   6.116e-11   -10.190   -10.214    -0.024     (0)  
   FeOH+2          9.821e-13   7.874e-13   -12.008   -12.104    -0.096     (0)  
   Fe+3            1.883e-17   1.180e-17   -16.725   -16.928    -0.203     (0)  
   FeSO4+          2.294e-19   2.171e-19   -18.639   -18.663    -0.024     (0)  
   Fe2(OH)2+4      6.385e-23   2.605e-23   -22.195   -22.584    -0.389     (0)  
   Fe(SO4)2-       1.026e-23   9.702e-24   -22.989   -23.013    -0.024     (0)  
   FeHSO4+2        3.812e-26   3.047e-26   -25.419   -25.516    -0.097     (0)  
   Fe3(OH)4+5      2.017e-28   4.969e-29   -27.695   -28.304    -0.608     (0)  
H(0)          4.143e-26
   H2              2.072e-26   2.073e-26   -25.684   -25.683     0.000     28.62
K             1.001e-05
   K+              9.989e-06   9.440e-06    -5.000    -5.025    -0.025      8.63
   KHCO3           1.674e-08   1.674e-08    -7.776    -7.776     0.000     40.95
   KSO4-           3.131e-10   2.968e-10    -9.504    -9.528    -0.023     13.06
Mg            1.354e-05
   Mg+2            1.292e-05   1.039e-05    -4.889    -4.983    -0.095    -21.37
   MgHCO3+         5.873e-07   5.553e-07    -6.231    -6.255    -0.024      5.14
   MgCO3           2.874e-08   2.875e-08    -7.542    -7.541     0.000    -17.08
   MgSO4           4.424e-09   4.429e-09    -8.354    -8.354     0.001    -12.11
   MgOH+           2.933e-10   2.779e-10    -9.533    -9.556    -0.023     (0)  
   Mg(SO4)2-2      4.703e-14   3.797e-14   -13.328   -13.421    -0.093     -1.95
Mn(2)         4.006e-09
   Mn+2            2.542e-09   2.045e-09    -8.595    -8.689    -0.094    -20.85
   MnHCO3+         9.107e-10   8.617e-10    -9.041    -9.065    -0.024     (0)  
   MnCO3           5.523e-10   5.526e-10    -9.258    -9.258     0.000     (0)  
   MnSO4           6.303e-13   6.307e-13   -12.200   -12.200     0.000     27.93
   MnOH+           4.499e-13   4.257e-13   -12.347   -12.371    -0.024     (0)  
   Mn(OH)3-        2.538e-22   2.402e-22   -21.596   -21.620    -0.024     (0)  
Mn(3)         2.091e-31
   Mn+3            2.091e-31   1.310e-31   -30.680   -30.883    -0.203     (0)  
Na            1.047e-04
   Na+             1.044e-04   9.873e-05    -3.981    -4.006    -0.024     -2.09
   NaHCO3          2.990e-07   2.994e-07    -6.524    -6.524     0.001     31.82
   NaSO4-          3.268e-09   3.094e-09    -8.486    -8.510    -0.024    -21.10
   NaOH            8.436e-22   8.441e-22   -21.074   -21.074     0.000     (0)  
O(0)          0.000e+00
   O2              0.000e+00   0.000e+00   -44.491   -44.491     0.000     29.46
S(6)          2.680e-06
   SO4-2           2.658e-06   2.131e-06    -5.575    -5.672    -0.096     14.62
   CaSO4           1.381e-08   1.382e-08    -7.860    -7.859     0.000      7.04
   MgSO4           4.424e-09   4.429e-09    -8.354    -8.354     0.001    -12.11
   NaSO4-          3.268e-09   3.094e-09    -8.486    -8.510    -0.024    -21.10
   KSO4-           3.131e-10   2.968e-10    -9.504    -9.528    -0.023     13.06
   HSO4-           9.045e-12   8.552e-12   -11.044   -11.068    -0.024     39.43
   FeSO4           6.932e-12   6.936e-12   -11.159   -11.159     0.000     31.74
   MnSO4           6.303e-13   6.307e-13   -12.200   -12.200     0.000     27.93
   Mg(SO4)2-2      4.703e-14   3.797e-14   -13.328   -13.421    -0.093     -1.95
   CaHSO4+         4.301e-15   4.067e-15   -14.366   -14.391    -0.024     (0)  
   AlSO4+          8.016e-16   7.582e-16   -15.096   -15.120    -0.024     (0)  
   FeHSO4+         2.424e-18   2.292e-18   -17.615   -17.640    -0.024     (0)  
   FeSO4+          2.294e-19   2.171e-19   -18.639   -18.663    -0.024     (0)  
   Al(SO4)2-       5.137e-20   4.859e-20   -19.289   -19.313    -0.024     (0)  
   Fe(SO4)2-       1.026e-23   9.702e-24   -22.989   -23.013    -0.024     (0)  
   AlHSO4+2        3.994e-24   3.192e-24   -23.399   -23.496    -0.097     (0)  
   FeHSO4+2        3.812e-26   3.047e-26   -25.419   -25.516    -0.097     (0)  
Si            1.120e-04
   H4SiO4          1.118e-04   1.119e-04    -3.951    -3.951     0.000     53.10
   H3SiO4-         2.309e-07   2.183e-07    -6.637    -6.661    -0.024     27.64
   H2SiO4-2        1.755e-13   1.409e-13   -12.756   -12.851    -0.095     (0)  

------------------------------Saturation indices-------------------------------

  Phase               SI** log IAP   log K(287 K,   1 atm)

  Al(OH)3(a)       -2.52      8.98   11.50  Al(OH)3
  Albite           -4.69    -23.38  -18.69  NaAlSi3O8
  Alunite         -11.22    -11.29   -0.07  KAl3(SO4)2(OH)6
  Anhydrite        -5.91    -10.07   -4.17  CaSO4
  Anorthite        -7.32    -27.34  -20.02  CaAl2Si2O8
  Aragonite        -1.59     -9.87   -8.28  CaCO3
  Arcanite        -13.69    -15.72   -2.03  K2SO4
  Ca-Montmorillonite  -0.75    -47.32  -46.57  Ca0.165Al2.33Si3.67O10(OH)2
  Calcite          -1.45     -9.87   -8.42  CaCO3
  Chalcedony       -0.27     -3.95   -3.68  SiO2
  Chlorite(14A)   -18.30     54.09   72.39  Mg5Al2Si3O10(OH)8
  Chrysotile      -12.65     20.89   33.54  Mg3Si2O5(OH)4
  CO2(g)           -1.86     -3.19   -1.34  CO2
  Dolomite         -3.39    -20.32  -16.93  CaMg(CO3)2
  Epsomite         -8.85    -10.66   -1.80  MgSO4:7H2O
  Fe(OH)3(a)        0.05      4.94    4.89  Fe(OH)3
  Gibbsite          0.27      8.98    8.71  Al(OH)3
  Goethite          5.56      4.94   -0.62  FeOOH
  Gypsum           -5.48    -10.07   -4.59  CaSO4:2H2O
  H2(g)           -22.61    -25.68   -3.07  H2
  H2O(g)           -1.78     -0.00    1.78  H2O
  Hausmannite     -23.44     40.25   63.70  Mn3O4
  Hematite         13.07      9.88   -3.19  Fe2O3
  Hexahydrite      -9.07    -10.66   -1.58  MgSO4:6H2O
  Illite           -2.41    -44.13  -41.72  K0.6Mg0.25Al2.3Si3.5O10(OH)2
  Jarosite-K      -15.03    -23.41   -8.38  KFe3(SO4)2(OH)6
  K-feldspar       -3.01    -24.40  -21.39  KAlSi3O8
  K-mica            3.08     17.36   14.28  KAl3Si3O10(OH)2
  Kaolinite         1.69     10.06    8.37  Al2Si2O5(OH)4
  Kieserite        -9.40    -10.65   -1.25  MgSO4:H2O
  Manganite        -8.16     17.18   25.34  MnOOH
  Melanterite     -10.98    -13.32   -2.34  FeSO4:7H2O
  Mirabilite      -11.96    -13.68   -1.73  Na2SO4:10H2O
  O2(g)           -41.68    -44.49   -2.81  O2
  Pyrochroite      -9.31      5.89   15.20  Mn(OH)2
  Pyrolusite      -14.63     28.47   43.10  MnO2:H2O
  Quartz            0.19     -3.95   -4.14  SiO2
  Rhodochrosite    -3.07    -14.16  -11.09  MnCO3
  Sepiolite        -8.70      7.34   16.04  Mg2Si3O7.5OH:3H2O
  Sepiolite(d)    -11.32      7.34   18.66  Mg2Si3O7.5OH:3H2O
  Siderite         -2.30    -13.12  -10.82  FeCO3
  SiO2(a)          -1.15     -3.95   -2.80  SiO2
  Talc             -9.64     12.99   22.63  Mg3Si4O10(OH)2
  Thenardite      -13.43    -13.68   -0.25  Na2SO4

**For a gas, SI = log10(fugacity). Fugacity = pressure * phi / 1 atm.
  For ideal gases, phi = 1.

Initial solution 46.	NEP22-16

WARNING: Equivalent wt for alkalinity should be Ca.5(CO3).5. Using 50.0455 g/eq.
-----------------------------Solution composition------------------------------

	Elements           Molality       Moles

	Al                2.346e-07   2.346e-07
	Alkalinity        3.414e-03   3.414e-03
	Ca                2.636e-05   2.636e-05
	Fe                3.416e-08   3.416e-08
	K                 7.583e-06   7.583e-06
	Mg                8.867e-06   8.867e-06
	Mn                5.462e-10   5.462e-10
	Na                4.377e-05   4.377e-05
	S(6)              1.183e-06   1.183e-06
	Si                8.427e-05   8.427e-05

----------------------------Description of solution----------------------------

                                       pH  =   7.140    
                                       pe  =   4.000    
      Specific Conductance (µS/cm,  12°C)  = 106
                          Density (g/cm³)  =   0.99967
                               Volume (L)  =   1.00057
                        Viscosity (mPa s)  =   1.24648
                        Activity of water  =   1.000
                 Ionic strength (mol/kgw)  =   1.806e-03
                       Mass of water (kg)  =   1.000e+00
                    Total carbon (mol/kg)  =   4.073e-03
                       Total CO2 (mol/kg)  =   4.073e-03
                         Temperature (°C)  =  11.70
                  Electrical balance (eq)  =  -3.294e-03
 Percent error, 100*(Cat-|An|)/(Cat+|An|)  = -93.14
                               Iterations  =   9 (55 overall)
                                  Total H  = 1.110162e+02
                                  Total O  = 5.551812e+01

----------------------------Distribution of species----------------------------

                                               Log       Log       Log    mole V
   Species          Molality    Activity  Molality  Activity     Gamma   cm³/mol

   H+              7.566e-08   7.244e-08    -7.121    -7.140    -0.019      0.00
   OH-             4.941e-08   4.716e-08    -7.306    -7.326    -0.020     -4.86
   H2O             5.551e+01   9.999e-01     1.744    -0.000     0.000     18.02
Al            2.346e-07
   Al(OH)4-        2.120e-07   2.024e-07    -6.674    -6.694    -0.020     (0)  
   Al(OH)2+        1.330e-08   1.271e-08    -7.876    -7.896    -0.020     (0)  
   Al(OH)3         8.837e-09   8.841e-09    -8.054    -8.054     0.000     (0)  
   AlOH+2          4.958e-10   4.134e-10    -9.305    -9.384    -0.079    -27.24
   Al+3            1.086e-11   7.346e-12   -10.964   -11.134    -0.170    -41.29
   AlSO4+          1.991e-14   1.901e-14   -13.701   -13.721    -0.020     (0)  
   Al(SO4)2-       5.786e-19   5.526e-19   -18.238   -18.258    -0.020     (0)  
   AlHSO4+2        1.339e-22   1.113e-22   -21.873   -21.954    -0.080     (0)  
C(4)          4.073e-03
   HCO3-           3.409e-03   3.258e-03    -2.467    -2.487    -0.020     23.13
   CO2             6.609e-04   6.611e-04    -3.180    -3.180     0.000     33.75
   CO3-2           1.841e-06   1.535e-06    -5.735    -5.814    -0.079     -5.84
   MgHCO3+         2.748e-07   2.624e-07    -6.561    -6.581    -0.020      5.00
   CaHCO3+         1.550e-07   1.481e-07    -6.810    -6.829    -0.020    122.01
   NaHCO3          7.966e-08   7.972e-08    -7.099    -7.098     0.000     31.84
   CaCO3           4.628e-08   4.630e-08    -7.335    -7.334     0.000    -14.65
   MgCO3           8.549e-09   8.552e-09    -8.068    -8.068     0.000    -17.07
   KHCO3           8.393e-09   8.393e-09    -8.076    -8.076     0.000     40.93
   FeHCO3+         6.968e-09   6.653e-09    -8.157    -8.177    -0.020     (0)  
   (CO2)2          4.990e-09   4.992e-09    -8.302    -8.302     0.000     67.51
   FeCO3           7.516e-10   7.519e-10    -9.124    -9.124     0.000     (0)  
   MnHCO3+         1.022e-10   9.767e-11    -9.990   -10.010    -0.020     (0)  
   MnCO3           4.099e-11   4.101e-11   -10.387   -10.387     0.000     (0)  
Ca            2.636e-05
   Ca+2            2.616e-05   2.181e-05    -4.582    -4.661    -0.079    -18.36
   CaHCO3+         1.550e-07   1.481e-07    -6.810    -6.829    -0.020    122.01
   CaCO3           4.628e-08   4.630e-08    -7.335    -7.334     0.000    -14.65
   CaSO4           3.423e-09   3.425e-09    -8.466    -8.465     0.000      6.89
   CaOH+           5.231e-11   4.995e-11   -10.281   -10.301    -0.020     (0)  
   CaHSO4+         1.442e-15   1.377e-15   -14.841   -14.861    -0.020     (0)  
Fe(2)         3.222e-08
   Fe+2            2.446e-08   2.042e-08    -7.612    -7.690    -0.078    -23.12
   FeHCO3+         6.968e-09   6.653e-09    -8.157    -8.177    -0.020     (0)  
   FeCO3           7.516e-10   7.519e-10    -9.124    -9.124     0.000     (0)  
   FeOH+           3.297e-11   3.150e-11   -10.482   -10.502    -0.020     (0)  
   FeSO4           2.759e-12   2.760e-12   -11.559   -11.559     0.000     36.13
[...]
Na            1.141e-04
   Na+             1.137e-04   1.069e-04    -3.944    -3.971    -0.026     -1.94
   NaHCO3          4.200e-07   4.206e-07    -6.377    -6.376     0.001     31.80
   NaSO4-          5.971e-10   5.622e-10    -9.224    -9.250    -0.026    -20.07
   NaOH            4.142e-22   4.145e-22   -21.383   -21.382     0.000     (0)  
O(0)          0.000e+00
   O2              0.000e+00   0.000e+00   -45.430   -45.429     0.000     29.68
S(6)          4.495e-07
   SO4-2           4.452e-07   3.492e-07    -6.351    -6.457    -0.105     15.21
   CaSO4           2.795e-09   2.797e-09    -8.554    -8.553     0.000      7.15
   MgSO4           8.449e-10   8.462e-10    -9.073    -9.073     0.001    -11.14
   NaSO4-          5.971e-10   5.622e-10    -9.224    -9.250    -0.026    -20.07
   KSO4-           8.350e-11   7.873e-11   -10.078   -10.104    -0.026     13.33
   HSO4-           4.090e-12   3.845e-12   -11.388   -11.415    -0.027     39.64
   FeSO4           1.213e-12   1.214e-12   -11.916   -11.916     0.000     28.81
   MnSO4           2.565e-13   2.567e-13   -12.591   -12.591     0.000     26.70
   AlSO4+          3.381e-14   3.181e-14   -13.471   -13.498    -0.027     (0)  
   CaHSO4+         2.361e-15   2.220e-15   -14.627   -14.654    -0.027     (0)  
   Mg(SO4)2-2      1.441e-15   1.140e-15   -14.841   -14.943    -0.102     -0.55
   FeHSO4+         1.123e-18   1.056e-18   -17.949   -17.976    -0.027     (0)  
   Al(SO4)2-       3.589e-19   3.376e-19   -18.445   -18.472    -0.027     (0)  
   FeSO4+          4.602e-20   4.331e-20   -19.337   -19.363    -0.026     (0)  
   AlHSO4+2        4.565e-22   3.568e-22   -21.341   -21.448    -0.107     (0)  
   Fe(SO4)2-       3.404e-25   3.201e-25   -24.468   -24.495    -0.027     (0)  
   FeHSO4+2        2.030e-26   1.587e-26   -25.692   -25.799    -0.107     (0)  
Si            1.324e-04
   H4SiO4          1.323e-04   1.324e-04    -3.879    -3.878     0.000     52.86
   H3SiO4-         1.135e-07   1.067e-07    -6.945    -6.972    -0.027     27.74
   H2SiO4-2        3.878e-14   3.048e-14   -13.411   -13.516    -0.105     (0)  

------------------------------Saturation indices-------------------------------

  Phase               SI** log IAP   log K(289 K,   1 atm)

  Al(OH)3(a)       -1.24     10.12   11.36  Al(OH)3
  Albite           -3.63    -22.17  -18.55  NaAlSi3O8
  Alunite          -7.64     -7.99   -0.35  KAl3(SO4)2(OH)6
  Anhydrite        -6.59    -10.78   -4.19  CaSO4
  Anorthite        -5.25    -25.21  -19.96  CaAl2Si2O8
  Aragonite        -1.81    -10.10   -8.29  CaCO3
  Arcanite        -14.09    -16.09   -2.00  K2SO4
  Ca-Montmorillonite   2.26    -43.99  -46.25  Ca0.165Al2.33Si3.67O10(OH)2
  Calcite          -1.67    -10.10   -8.43  CaCO3
  Chalcedony       -0.23     -3.88   -3.65  SiO2
  Chlorite(14A)   -18.96     52.60   71.56  Mg5Al2Si3O10(OH)8
  Chrysotile      -14.62     18.64   33.26  Mg3Si2O5(OH)4
  CO2(g)           -1.34     -2.70   -1.36  CO2
  Dolomite         -3.86    -20.82  -16.96  CaMg(CO3)2
  Epsomite         -9.61    -11.40   -1.79  MgSO4:7H2O
  Fe(OH)3(a)       -1.15      3.75    4.89  Fe(OH)3
  Gibbsite          1.53     10.12    8.59  Al(OH)3
  Goethite          4.44      3.75   -0.70  FeOOH
  Gypsum           -6.19    -10.78   -4.59  CaSO4:2H2O
  H2(g)           -21.77    -24.85   -3.08  H2
  H2O(g)           -1.72     -0.00    1.72  H2O
  Hausmannite     -25.12     38.02   63.14  Mn3O4
  Hematite         10.85      7.49   -3.36  Fe2O3
  Hexahydrite      -9.82    -11.40   -1.58  MgSO4:6H2O
  Illite            0.36    -41.05  -41.41  K0.6Mg0.25Al2.3Si3.5O10(OH)2
  Jarosite-K      -18.55    -27.11   -8.55  KFe3(SO4)2(OH)6
  K-feldspar       -1.80    -23.02  -21.22  KAlSi3O8
  K-mica            6.82     20.77   13.95  KAl3Si3O10(OH)2
  Kaolinite         4.30     12.48    8.18  Al2Si2O5(OH)4
  Kieserite       -10.17    -11.40   -1.23  MgSO4:H2O
  Manganite        -9.04     16.30   25.34  MnOOH
  Melanterite     -11.78    -14.10   -2.32  FeSO4:7H2O
  Mirabilite      -12.78    -14.40   -1.62  Na2SO4:10H2O
  O2(g)           -42.60    -45.43   -2.83  O2
  Pyrochroite      -9.77      5.43   15.20  Mn(OH)2
  Pyrolusite      -15.58     27.17   42.75  MnO2:H2O
  Quartz            0.23     -3.88   -4.11  SiO2
  Rhodochrosite    -2.99    -14.09  -11.10  MnCO3
  Sepiolite       -10.02      5.96   15.98  Mg2Si3O7.5OH:3H2O
  Sepiolite(d)    -12.70      5.96   18.66  Mg2Si3O7.5OH:3H2O
  Siderite         -2.58    -13.42  -10.84  FeCO3
  SiO2(a)          -1.10     -3.88   -2.78  SiO2
  Talc            -11.49     10.89   22.37  Mg3Si4O10(OH)2
  Thenardite      -14.14    -14.40   -0.26  Na2SO4

**For a gas, SI = log10(fugacity). Fugacity = pressure * phi / 1 atm.
  For ideal gases, phi = 1.

-----------------------------------------
Beginning of batch-reaction calculations.
-----------------------------------------

Reaction step 1.

WARNING: Element Cl is contained in Halite (which has 0.0 mass),	
but is not in solution or other phases.
Using solution 41.	NEP22-10
Using pure phase assemblage 1.	

-------------------------------Phase assemblage--------------------------------

                                                      Moles in assemblage
Phase               SI  log IAP  log K(T, P)   Initial       Final       Delta

Albite           -6.97   -25.78    -18.81    0.000e+00           0   0.000e+00
Anhydrite       -19.30   -23.45     -4.15    0.000e+00           0   0.000e+00
Anorthite       -23.09   -43.17    -20.08    0.000e+00           0   0.000e+00
Calcite         -14.80   -23.22     -8.41    0.000e+00           0   0.000e+00
Dolomite        -18.41   -35.32    -16.91    0.000e+00           0   0.000e+00
Gibbsite         -0.39     8.44      8.82    0.000e+00           0   0.000e+00
Goethite         -0.97    -1.52     -0.55    0.000e+00           0   0.000e+00
Gypsum          -18.86   -23.45     -4.59    0.000e+00           0   0.000e+00
Halite               Element not present.    0.000e+00           0   0.000e+00
Hematite         -0.00    -3.04     -3.04    0.000e+00   4.329e-11   4.329e-11
Illite           -5.84   -47.82    -41.98    0.000e+00           0   0.000e+00
Kaolinite        -0.00     8.54      8.54    0.000e+00   3.131e-08   3.131e-08
Pyrite          -34.36   -53.19    -18.83    0.000e+00           0   0.000e+00
Quartz            0.00    -4.17     -4.17    0.000e+00   2.225e-05   2.225e-05
Siderite         -3.32   -14.14    -10.81    0.000e+00           0   0.000e+00

-----------------------------Solution composition------------------------------

	Elements           Molality       Moles

	Al                2.244e-09   2.244e-09
	C                 5.316e-03   5.316e-03
	Ca                2.495e-17   2.495e-17
	Fe                3.709e-08   3.709e-08
	K                 5.030e-06   5.030e-06
	Mg                3.303e-06   3.303e-06
	Mn                2.785e-08   2.785e-08
	Na                6.586e-05   6.586e-05
	S                 1.992e-07   1.992e-07
	Si                6.795e-05   6.795e-05

----------------------------Description of solution----------------------------

                                       pH  =   6.480      Charge balance
                                       pe  =  -0.041      Adjusted to redox equilibrium
      Specific Conductance (µS/cm,  13°C)  = 90
                          Density (g/cm³)  =   0.99954
                               Volume (L)  =   1.00075
                        Viscosity (mPa s)  =   1.20861
                        Activity of water  =   1.000
                 Ionic strength (mol/kgw)  =   1.465e-03
                       Mass of water (kg)  =   1.000e+00
                 Total alkalinity (eq/kg)  =   2.843e-03
                       Total CO2 (mol/kg)  =   5.316e-03
                         Temperature (°C)  =  12.80
                  Electrical balance (eq)  =  -2.766e-03
 Percent error, 100*(Cat-|An|)/(Cat+|An|)  = -94.68
                               Iterations  =   8
                                  Total H  = 1.110156e+02
                                  Total O  = 5.552001e+01

----------------------------Distribution of species----------------------------

                                               Log       Log       Log    mole V
   Species          Molality    Activity  Molality  Activity     Gamma   cm³/mol

   H+              3.445e-07   3.311e-07    -6.463    -6.480    -0.017      0.00
   OH-             1.184e-08   1.135e-08    -7.927    -7.945    -0.018     -4.78
   H2O             5.551e+01   9.999e-01     1.744    -0.000     0.000     18.03
Al            2.244e-09
   Al(OH)2+        1.034e-09   9.923e-10    -8.985    -9.003    -0.018     (0)  
   Al(OH)4-        8.741e-10   8.384e-10    -9.058    -9.077    -0.018     (0)  
   Al(OH)3         1.663e-10   1.663e-10    -9.779    -9.779     0.000     (0)  
   AlOH+2          1.557e-10   1.320e-10    -9.808    -9.880    -0.072    -27.29
   Al+3            1.419e-11   9.938e-12   -10.848   -11.003    -0.155    -41.39
   AlSO4+          4.681e-15   4.490e-15   -14.330   -14.348    -0.018     (0)  
   Al(SO4)2-       2.351e-20   2.255e-20   -19.629   -19.647    -0.018     (0)  
   AlHSO4+2        1.429e-22   1.208e-22   -21.845   -21.918    -0.073     (0)  
C(-4)         9.301e-29
   CH4             9.301e-29   9.304e-29   -28.031   -28.031     0.000     34.29
C(4)          5.316e-03
   HCO3-           2.843e-03   2.728e-03    -2.546    -2.564    -0.018     23.28
   CO2             2.473e-03   2.473e-03    -2.607    -2.607     0.000     33.81
   CO3-2           3.418e-07   2.898e-07    -6.466    -6.538    -0.072     -5.64
   NaHCO3          1.043e-07   1.044e-07    -6.982    -6.981     0.000     31.83
   MgHCO3+         8.742e-08   8.383e-08    -7.058    -7.077    -0.018      5.05
   (CO2)2          7.285e-08   7.288e-08    -7.138    -7.137     0.000     67.63
   FeHCO3+         7.177e-09   6.882e-09    -8.144    -8.162    -0.018     (0)  
   MnHCO3+         4.853e-09   4.655e-09    -8.314    -8.332    -0.018     (0)  
   KHCO3           4.775e-09   4.775e-09    -8.321    -8.321     0.000     40.94
   MgCO3           6.253e-10   6.256e-10    -9.204    -9.204     0.000    -17.08
   MnCO3           4.406e-10   4.408e-10    -9.356    -9.356     0.000     (0)  
   FeCO3           1.753e-10   1.754e-10    -9.756    -9.756     0.000     (0)  
   CaHCO3+         1.313e-19   1.261e-19   -18.882   -18.899    -0.018    122.07
   CaCO3           8.513e-21   8.516e-21   -20.070   -20.070     0.000    -14.64
Ca            2.495e-17
   Ca+2            2.481e-17   2.103e-17   -16.605   -16.677    -0.072    -18.34
   CaHCO3+         1.313e-19   1.261e-19   -18.882   -18.899    -0.018    122.07
   CaCO3           8.513e-21   8.516e-21   -20.070   -20.070     0.000    -14.64
   CaSO4           5.726e-22   5.728e-22   -21.242   -21.242     0.000      6.95
   CaOH+           1.099e-23   1.054e-23   -22.959   -22.977    -0.018     (0)  
   CaHSO4+         1.111e-27   1.066e-27   -26.954   -26.972    -0.018     (0)  
Fe(2)         3.709e-08
   Fe+2            2.972e-08   2.523e-08    -7.527    -7.598    -0.071    -23.03
   FeHCO3+         7.177e-09   6.882e-09    -8.144    -8.162    -0.018     (0)  
   FeCO3           1.753e-10   1.754e-10    -9.756    -9.756     0.000     (0)  
   FeOH+           9.707e-12   9.313e-12   -11.013   -11.031    -0.018     (0)  
   FeSO4           5.988e-13   5.990e-13   -12.223   -12.223     0.000     34.41
   Fe(OH)2         7.914e-17   7.916e-17   -16.102   -16.101     0.000     (0)  
   FeHSO4+         1.333e-18   1.278e-18   -17.875   -17.893    -0.018     (0)  
   Fe(OH)3-        8.170e-21   7.838e-21   -20.088   -20.106    -0.018     (0)  
   Fe(HS)2         0.000e+00   0.000e+00   -57.120   -57.120     0.000     (0)  
   Fe(HS)3-        0.000e+00   0.000e+00   -84.301   -84.319    -0.018     (0)  
Fe(3)         7.881e-15
   Fe(OH)2+        6.478e-15   6.216e-15   -14.189   -14.206    -0.018     (0)  
   Fe(OH)3         1.388e-15   1.389e-15   -14.857   -14.857     0.000     (0)  
   FeOH+2          1.189e-17   1.007e-17   -16.925   -16.997    -0.072     (0)  
   Fe(OH)4-        2.391e-18   2.294e-18   -17.621   -17.639    -0.018     (0)  
   Fe+3            1.560e-21   1.092e-21   -20.807   -20.962    -0.155     (0)  
   FeSO4+          1.587e-24   1.523e-24   -23.799   -23.817    -0.018     (0)  
   Fe(SO4)2-       5.569e-30   5.341e-30   -29.254   -29.272    -0.018     (0)  
   FeHSO4+2        1.644e-30   1.390e-30   -29.784   -29.857    -0.073     (0)  
   Fe2(OH)2+4      9.033e-33   4.618e-33   -32.044   -32.336    -0.291     (0)  
   Fe3(OH)4+5      0.000e+00   0.000e+00   -43.257   -43.712    -0.455     (0)  
H(0)          2.126e-16
   H2              1.063e-16   1.063e-16   -15.973   -15.973     0.000     28.62
K             5.030e-06
   K+              5.026e-06   4.818e-06    -5.299    -5.317    -0.018      8.54
   KHCO3           4.775e-09   4.775e-09    -8.321    -8.321     0.000     40.94
   KSO4-           1.244e-11   1.194e-11   -10.905   -10.923    -0.018     12.80
Mg            3.303e-06
   Mg+2            3.215e-06   2.728e-06    -5.493    -5.564    -0.071    -21.33
   MgHCO3+         8.742e-08   8.383e-08    -7.058    -7.077    -0.018      5.05
   MgCO3           6.253e-10   6.256e-10    -9.204    -9.204     0.000    -17.08
   MgSO4           8.772e-11   8.778e-11   -10.057   -10.057     0.000    -12.99
   MgOH+           9.879e-12   9.484e-12   -11.005   -11.023    -0.018     (0)  
   Mg(SO4)2-2      7.256e-17   6.172e-17   -16.139   -16.210    -0.070     -5.26
Mn(2)         2.785e-08
   Mn+2            2.256e-08   1.915e-08    -7.647    -7.718    -0.071    -21.21
   MnHCO3+         4.853e-09   4.655e-09    -8.314    -8.332    -0.018     (0)  
   MnCO3           4.406e-10   4.408e-10    -9.356    -9.356     0.000     (0)  
   MnOH+           5.493e-13   5.269e-13   -12.260   -12.278    -0.018     (0)  
   MnSO4           4.499e-13   4.501e-13   -12.347   -12.347     0.000     29.06
   Mn(OH)3-        8.710e-24   8.356e-24   -23.060   -23.078    -0.018     (0)  
Mn(3)         1.200e-34
   Mn+3            1.200e-34   8.404e-35   -33.921   -34.076    -0.155     (0)  
Na            6.586e-05
   Na+             6.575e-05   6.307e-05    -4.182    -4.200    -0.018     -2.25
   NaHCO3          1.043e-07   1.044e-07    -6.982    -6.981     0.000     31.83
   NaSO4-          1.594e-10   1.530e-10    -9.797    -9.815    -0.018    -23.00
   NaOH            7.158e-23   7.160e-23   -22.145   -22.145     0.000     (0)  
O(0)          0.000e+00
   O2              0.000e+00   0.000e+00   -64.539   -64.539     0.000     29.27
S(-2)         3.139e-29
   H2S             2.533e-29   2.534e-29   -28.596   -28.596     0.000     32.68
   HS-             6.059e-30   5.808e-30   -29.218   -29.236    -0.018     19.86
   S-2             1.046e-36   8.864e-37   -35.980   -36.052    -0.072     (0)  
   Fe(HS)2         0.000e+00   0.000e+00   -57.120   -57.120     0.000     (0)  
   (H2S)2          0.000e+00   0.000e+00   -58.617   -58.616     0.000     30.55
   Fe(HS)3-        0.000e+00   0.000e+00   -84.301   -84.319    -0.018     (0)  
S(6)          1.992e-07
   SO4-2           1.989e-07   1.685e-07    -6.701    -6.773    -0.072     13.76
   NaSO4-          1.594e-10   1.530e-10    -9.797    -9.815    -0.018    -23.00
   MgSO4           8.772e-11   8.778e-11   -10.057   -10.057     0.000    -12.99
   KSO4-           1.244e-11   1.194e-11   -10.905   -10.923    -0.018     12.80
   HSO4-           4.395e-12   4.215e-12   -11.357   -11.375    -0.018     39.23
   FeSO4           5.988e-13   5.990e-13   -12.223   -12.223     0.000     34.41
   MnSO4           4.499e-13   4.501e-13   -12.347   -12.347     0.000     29.06
   AlSO4+          4.681e-15   4.490e-15   -14.330   -14.348    -0.018     (0)  
   Mg(SO4)2-2      7.256e-17   6.172e-17   -16.139   -16.210    -0.070     -5.26
   FeHSO4+         1.333e-18   1.278e-18   -17.875   -17.893    -0.018     (0)  
   Al(SO4)2-       2.351e-20   2.255e-20   -19.629   -19.647    -0.018     (0)  
   CaSO4           5.726e-22   5.728e-22   -21.242   -21.242     0.000      6.95
   AlHSO4+2        1.429e-22   1.208e-22   -21.845   -21.918    -0.073     (0)  
   FeSO4+          1.587e-24   1.523e-24   -23.799   -23.817    -0.018     (0)  
   CaHSO4+         1.111e-27   1.066e-27   -26.954   -26.972    -0.018     (0)  
   Fe(SO4)2-       5.569e-30   5.341e-30   -29.254   -29.272    -0.018     (0)  
   FeHSO4+2        1.644e-30   1.390e-30   -29.784   -29.857    -0.073     (0)  
Si            6.795e-05
   H4SiO4          6.793e-05   6.795e-05    -4.168    -4.168     0.000     53.31
   H3SiO4-         1.992e-08   1.910e-08    -7.701    -7.719    -0.018     27.54
   H2SiO4-2        1.969e-15   1.669e-15   -14.706   -14.778    -0.072     (0)  

------------------------------Saturation indices-------------------------------

  Phase               SI** log IAP   log K(285 K,   1 atm)

  Al(OH)3(a)       -3.19      8.44   11.63  Al(OH)3
  Albite           -6.97    -25.78  -18.81  NaAlSi3O8
  Alunite         -13.16    -12.99    0.17  KAl3(SO4)2(OH)6
  Anhydrite       -19.30    -23.45   -4.15  CaSO4
  Anorthite       -23.09    -43.17  -20.08  CaAl2Si2O8
  Aragonite       -14.95    -23.22   -8.27  CaCO3
  Arcanite        -15.35    -17.41   -2.06  K2SO4
  Ca-Montmorillonite  -5.30    -52.16  -46.85  Ca0.165Al2.33Si3.67O10(OH)2
  Calcite         -14.80    -23.22   -8.41  CaCO3
  CH4(g)          -25.36    -28.03   -2.67  CH4
  Chalcedony       -0.47     -4.17   -3.70  SiO2
  Chlorite(14A)   -31.77     41.35   73.12  Mg5Al2Si3O10(OH)8
  Chrysotile      -19.92     13.85   33.78  Mg3Si2O5(OH)4
  CO2(g)           -1.30     -2.61   -1.31  CO2
  Dolomite        -18.41    -35.32  -16.91  CaMg(CO3)2
  Epsomite        -10.52    -12.34   -1.81  MgSO4:7H2O
  Fe(OH)3(a)       -6.41     -1.52    4.89  Fe(OH)3
  FeS(ppt)        -26.44    -30.35   -3.92  FeS
  Gibbsite         -0.39      8.44    8.82  Al(OH)3
  Goethite         -0.97     -1.52   -0.55  FeOOH
  Gypsum          -18.86    -23.45   -4.59  CaSO4:2H2O
  H2(g)           -12.91    -15.97   -3.07  H2
  H2O(g)           -1.83     -0.00    1.83  H2O
  H2S(g)          -27.75    -35.72   -7.97  H2S
  Hausmannite     -35.57     28.60   64.18  Mn3O4
  Hematite         -0.00     -3.04   -3.04  Fe2O3
  Hexahydrite     -10.75    -12.34   -1.58  MgSO4:6H2O
  Illite           -5.84    -47.82  -41.98  K0.6Mg0.25Al2.3Si3.5O10(OH)2
  Jarosite-K      -34.64    -42.87   -8.23  KFe3(SO4)2(OH)6
  K-feldspar       -5.36    -26.90  -21.54  KAlSi3O8
  K-mica           -0.59     13.97   14.56  KAl3Si3O10(OH)2
  Kaolinite        -0.00      8.54    8.54  Al2Si2O5(OH)4
  Kieserite       -11.06    -12.34   -1.27  MgSO4:H2O
  Mackinawite     -25.71    -30.35   -4.65  FeS
  Manganite       -13.66     11.68   25.34  MnOOH
  Melanterite     -12.00    -14.37   -2.37  FeSO4:7H2O
  Mirabilite      -13.35    -15.17   -1.82  Na2SO4:10H2O
  O2(g)           -61.75    -64.54   -2.79  O2
  Pyrite          -34.36    -53.19  -18.83  FeS2
  Pyrochroite      -9.96      5.24   15.20  Mn(OH)2
  Pyrolusite      -25.30     18.12   43.42  MnO2:H2O
  Quartz            0.00     -4.17   -4.17  SiO2
  Rhodochrosite    -3.17    -14.26  -11.09  MnCO3
  Sepiolite       -13.81      2.29   16.09  Mg2Si3O7.5OH:3H2O
  Sepiolite(d)    -16.37      2.29   18.66  Mg2Si3O7.5OH:3H2O
  Siderite         -3.32    -14.14  -10.81  FeCO3
  SiO2(a)          -1.35     -4.17   -2.82  SiO2
  Sulfur          -20.90    -15.72    5.18  S
  Talc            -17.33      5.52   22.85  Mg3Si4O10(OH)2
  Thenardite      -14.93    -15.17   -0.24  Na2SO4

**For a gas, SI = log10(fugacity). Fugacity = pressure * phi / 1 atm.
  For ideal gases, phi = 1.

------------------
End of simulation.
------------------

------------------------------------
Reading input data for simulation 2.
------------------------------------

----------------------------------
End of Run after 0.013792 Seconds.
----------------------------------

